
---------- Begin Simulation Statistics ----------
sim_seconds                                  0.003321                       # Number of seconds simulated
sim_ticks                                  3321156000                       # Number of ticks simulated
final_tick                                 3321156000                       # Number of ticks from beginning of simulation (restored from checkpoints and never reset)
sim_freq                                 1000000000000                       # Frequency of simulated ticks
host_inst_rate                                   1760                       # Simulator instruction rate (inst/s)
host_op_rate                                     1825                       # Simulator op (including micro ops) rate (op/s)
host_tick_rate                                 620896                       # Simulator tick rate (ticks/s)
host_mem_usage                                 681456                       # Number of bytes of host memory used
host_seconds                                  5348.98                       # Real time elapsed on the host
sim_insts                                     9411554                       # Number of instructions simulated
sim_ops                                       9763345                       # Number of ops (including micro ops) simulated
system.voltage_domain.voltage                       1                       # Voltage in Volts
system.clk_domain.clock                          1000                       # Clock period in ticks
system.mem_ctrls.pwrStateResidencyTicks::UNDEFINED   3321156000                       # Cumulative time (in ticks) in various power states
system.mem_ctrls.bytes_read::cpu.inst           81856                       # Number of bytes read from this memory
system.mem_ctrls.bytes_read::cpu.data           96768                       # Number of bytes read from this memory
system.mem_ctrls.bytes_read::total             178624                       # Number of bytes read from this memory
system.mem_ctrls.bytes_inst_read::cpu.inst        81856                       # Number of instructions bytes read from this memory
system.mem_ctrls.bytes_inst_read::total         81856                       # Number of instructions bytes read from this memory
system.mem_ctrls.bytes_written::writebacks        32768                       # Number of bytes written to this memory
system.mem_ctrls.bytes_written::total           32768                       # Number of bytes written to this memory
system.mem_ctrls.num_reads::cpu.inst             1279                       # Number of read requests responded to by this memory
system.mem_ctrls.num_reads::cpu.data             1512                       # Number of read requests responded to by this memory
system.mem_ctrls.num_reads::total                2791                       # Number of read requests responded to by this memory
system.mem_ctrls.num_writes::writebacks           512                       # Number of write requests responded to by this memory
system.mem_ctrls.num_writes::total                512                       # Number of write requests responded to by this memory
system.mem_ctrls.bw_read::cpu.inst           24646840                       # Total read bandwidth from this memory (bytes/s)
system.mem_ctrls.bw_read::cpu.data           29136843                       # Total read bandwidth from this memory (bytes/s)
system.mem_ctrls.bw_read::total              53783683                       # Total read bandwidth from this memory (bytes/s)
system.mem_ctrls.bw_inst_read::cpu.inst      24646840                       # Instruction read bandwidth from this memory (bytes/s)
system.mem_ctrls.bw_inst_read::total         24646840                       # Instruction read bandwidth from this memory (bytes/s)
system.mem_ctrls.bw_write::writebacks         9866444                       # Write bandwidth from this memory (bytes/s)
system.mem_ctrls.bw_write::total              9866444                       # Write bandwidth from this memory (bytes/s)
system.mem_ctrls.bw_total::writebacks         9866444                       # Total bandwidth to/from this memory (bytes/s)
system.mem_ctrls.bw_total::cpu.inst          24646840                       # Total bandwidth to/from this memory (bytes/s)
system.mem_ctrls.bw_total::cpu.data          29136843                       # Total bandwidth to/from this memory (bytes/s)
system.mem_ctrls.bw_total::total             63650127                       # Total bandwidth to/from this memory (bytes/s)
system.mem_ctrls.readReqs                        2792                       # Number of read requests accepted
system.mem_ctrls.writeReqs                       2107                       # Number of write requests accepted
system.mem_ctrls.readBursts                      2792                       # Number of DRAM read bursts, including those serviced by the write queue
system.mem_ctrls.writeBursts                     2107                       # Number of DRAM write bursts, including those merged in the write queue
system.mem_ctrls.bytesReadDRAM                 143808                       # Total number of bytes read from DRAM
system.mem_ctrls.bytesReadWrQ                   34880                       # Total number of bytes read from write queue
system.mem_ctrls.bytesWritten                  121408                       # Total number of bytes written to DRAM
system.mem_ctrls.bytesReadSys                  178688                       # Total read bytes from the system interface side
system.mem_ctrls.bytesWrittenSys               134848                       # Total written bytes from the system interface side
system.mem_ctrls.servicedByWrQ                    545                       # Number of DRAM read bursts serviced by the write queue
system.mem_ctrls.mergedWrBursts                   182                       # Number of DRAM write bursts merged with an existing one
system.mem_ctrls.neitherReadNorWriteReqs            0                       # Number of requests that are neither read nor write
system.mem_ctrls.perBankRdBursts::0               264                       # Per bank write bursts
system.mem_ctrls.perBankRdBursts::1               102                       # Per bank write bursts
system.mem_ctrls.perBankRdBursts::2                12                       # Per bank write bursts
system.mem_ctrls.perBankRdBursts::3                77                       # Per bank write bursts
system.mem_ctrls.perBankRdBursts::4               110                       # Per bank write bursts
system.mem_ctrls.perBankRdBursts::5                35                       # Per bank write bursts
system.mem_ctrls.perBankRdBursts::6               356                       # Per bank write bursts
system.mem_ctrls.perBankRdBursts::7               135                       # Per bank write bursts
system.mem_ctrls.perBankRdBursts::8               131                       # Per bank write bursts
system.mem_ctrls.perBankRdBursts::9               155                       # Per bank write bursts
system.mem_ctrls.perBankRdBursts::10               69                       # Per bank write bursts
system.mem_ctrls.perBankRdBursts::11               19                       # Per bank write bursts
system.mem_ctrls.perBankRdBursts::12              157                       # Per bank write bursts
system.mem_ctrls.perBankRdBursts::13              306                       # Per bank write bursts
system.mem_ctrls.perBankRdBursts::14              275                       # Per bank write bursts
system.mem_ctrls.perBankRdBursts::15               44                       # Per bank write bursts
system.mem_ctrls.perBankWrBursts::0               197                       # Per bank write bursts
system.mem_ctrls.perBankWrBursts::1               105                       # Per bank write bursts
system.mem_ctrls.perBankWrBursts::2                12                       # Per bank write bursts
system.mem_ctrls.perBankWrBursts::3                48                       # Per bank write bursts
system.mem_ctrls.perBankWrBursts::4                72                       # Per bank write bursts
system.mem_ctrls.perBankWrBursts::5                14                       # Per bank write bursts
system.mem_ctrls.perBankWrBursts::6               280                       # Per bank write bursts
system.mem_ctrls.perBankWrBursts::7                15                       # Per bank write bursts
system.mem_ctrls.perBankWrBursts::8               107                       # Per bank write bursts
system.mem_ctrls.perBankWrBursts::9               137                       # Per bank write bursts
system.mem_ctrls.perBankWrBursts::10               55                       # Per bank write bursts
system.mem_ctrls.perBankWrBursts::11                5                       # Per bank write bursts
system.mem_ctrls.perBankWrBursts::12               96                       # Per bank write bursts
system.mem_ctrls.perBankWrBursts::13              323                       # Per bank write bursts
system.mem_ctrls.perBankWrBursts::14              383                       # Per bank write bursts
system.mem_ctrls.perBankWrBursts::15               48                       # Per bank write bursts
system.mem_ctrls.numRdRetry                         0                       # Number of times read queue was full causing retry
system.mem_ctrls.numWrRetry                         0                       # Number of times write queue was full causing retry
system.mem_ctrls.totGap                    3321154500                       # Total gap between requests
system.mem_ctrls.readPktSize::0                     0                       # Read request sizes (log2)
system.mem_ctrls.readPktSize::1                     0                       # Read request sizes (log2)
system.mem_ctrls.readPktSize::2                     0                       # Read request sizes (log2)
system.mem_ctrls.readPktSize::3                     0                       # Read request sizes (log2)
system.mem_ctrls.readPktSize::4                     0                       # Read request sizes (log2)
system.mem_ctrls.readPktSize::5                     0                       # Read request sizes (log2)
system.mem_ctrls.readPktSize::6                  2792                       # Read request sizes (log2)
system.mem_ctrls.writePktSize::0                    0                       # Write request sizes (log2)
system.mem_ctrls.writePktSize::1                    0                       # Write request sizes (log2)
system.mem_ctrls.writePktSize::2                    0                       # Write request sizes (log2)
system.mem_ctrls.writePktSize::3                    0                       # Write request sizes (log2)
system.mem_ctrls.writePktSize::4                    0                       # Write request sizes (log2)
system.mem_ctrls.writePktSize::5                    0                       # Write request sizes (log2)
system.mem_ctrls.writePktSize::6                 2107                       # Write request sizes (log2)
system.mem_ctrls.rdQLenPdf::0                    1324                       # What read queue length does an incoming req see
system.mem_ctrls.rdQLenPdf::1                     688                       # What read queue length does an incoming req see
system.mem_ctrls.rdQLenPdf::2                     185                       # What read queue length does an incoming req see
system.mem_ctrls.rdQLenPdf::3                      40                       # What read queue length does an incoming req see
system.mem_ctrls.rdQLenPdf::4                       8                       # What read queue length does an incoming req see
system.mem_ctrls.rdQLenPdf::5                       2                       # What read queue length does an incoming req see
system.mem_ctrls.rdQLenPdf::6                       0                       # What read queue length does an incoming req see
system.mem_ctrls.rdQLenPdf::7                       0                       # What read queue length does an incoming req see
system.mem_ctrls.rdQLenPdf::8                       0                       # What read queue length does an incoming req see
system.mem_ctrls.rdQLenPdf::9                       0                       # What read queue length does an incoming req see
system.mem_ctrls.rdQLenPdf::10                      0                       # What read queue length does an incoming req see
system.mem_ctrls.rdQLenPdf::11                      0                       # What read queue length does an incoming req see
system.mem_ctrls.rdQLenPdf::12                      0                       # What read queue length does an incoming req see
system.mem_ctrls.rdQLenPdf::13                      0                       # What read queue length does an incoming req see
system.mem_ctrls.rdQLenPdf::14                      0                       # What read queue length does an incoming req see
system.mem_ctrls.rdQLenPdf::15                      0                       # What read queue length does an incoming req see
system.mem_ctrls.rdQLenPdf::16                      0                       # What read queue length does an incoming req see
system.mem_ctrls.rdQLenPdf::17                      0                       # What read queue length does an incoming req see
system.mem_ctrls.rdQLenPdf::18                      0                       # What read queue length does an incoming req see
system.mem_ctrls.rdQLenPdf::19                      0                       # What read queue length does an incoming req see
system.mem_ctrls.rdQLenPdf::20                      0                       # What read queue length does an incoming req see
system.mem_ctrls.rdQLenPdf::21                      0                       # What read queue length does an incoming req see
system.mem_ctrls.rdQLenPdf::22                      0                       # What read queue length does an incoming req see
system.mem_ctrls.rdQLenPdf::23                      0                       # What read queue length does an incoming req see
system.mem_ctrls.rdQLenPdf::24                      0                       # What read queue length does an incoming req see
system.mem_ctrls.rdQLenPdf::25                      0                       # What read queue length does an incoming req see
system.mem_ctrls.rdQLenPdf::26                      0                       # What read queue length does an incoming req see
system.mem_ctrls.rdQLenPdf::27                      0                       # What read queue length does an incoming req see
system.mem_ctrls.rdQLenPdf::28                      0                       # What read queue length does an incoming req see
system.mem_ctrls.rdQLenPdf::29                      0                       # What read queue length does an incoming req see
system.mem_ctrls.rdQLenPdf::30                      0                       # What read queue length does an incoming req see
system.mem_ctrls.rdQLenPdf::31                      0                       # What read queue length does an incoming req see
system.mem_ctrls.wrQLenPdf::0                       1                       # What write queue length does an incoming req see
system.mem_ctrls.wrQLenPdf::1                       1                       # What write queue length does an incoming req see
system.mem_ctrls.wrQLenPdf::2                       1                       # What write queue length does an incoming req see
system.mem_ctrls.wrQLenPdf::3                       1                       # What write queue length does an incoming req see
system.mem_ctrls.wrQLenPdf::4                       1                       # What write queue length does an incoming req see
system.mem_ctrls.wrQLenPdf::5                       1                       # What write queue length does an incoming req see
system.mem_ctrls.wrQLenPdf::6                       1                       # What write queue length does an incoming req see
system.mem_ctrls.wrQLenPdf::7                       1                       # What write queue length does an incoming req see
system.mem_ctrls.wrQLenPdf::8                       1                       # What write queue length does an incoming req see
system.mem_ctrls.wrQLenPdf::9                       1                       # What write queue length does an incoming req see
system.mem_ctrls.wrQLenPdf::10                      1                       # What write queue length does an incoming req see
system.mem_ctrls.wrQLenPdf::11                      1                       # What write queue length does an incoming req see
system.mem_ctrls.wrQLenPdf::12                      1                       # What write queue length does an incoming req see
system.mem_ctrls.wrQLenPdf::13                      1                       # What write queue length does an incoming req see
system.mem_ctrls.wrQLenPdf::14                      1                       # What write queue length does an incoming req see
system.mem_ctrls.wrQLenPdf::15                     11                       # What write queue length does an incoming req see
system.mem_ctrls.wrQLenPdf::16                     14                       # What write queue length does an incoming req see
system.mem_ctrls.wrQLenPdf::17                     61                       # What write queue length does an incoming req see
system.mem_ctrls.wrQLenPdf::18                    105                       # What write queue length does an incoming req see
system.mem_ctrls.wrQLenPdf::19                    125                       # What write queue length does an incoming req see
system.mem_ctrls.wrQLenPdf::20                    125                       # What write queue length does an incoming req see
system.mem_ctrls.wrQLenPdf::21                    131                       # What write queue length does an incoming req see
system.mem_ctrls.wrQLenPdf::22                    131                       # What write queue length does an incoming req see
system.mem_ctrls.wrQLenPdf::23                    126                       # What write queue length does an incoming req see
system.mem_ctrls.wrQLenPdf::24                    124                       # What write queue length does an incoming req see
system.mem_ctrls.wrQLenPdf::25                    122                       # What write queue length does an incoming req see
system.mem_ctrls.wrQLenPdf::26                    123                       # What write queue length does an incoming req see
system.mem_ctrls.wrQLenPdf::27                    128                       # What write queue length does an incoming req see
system.mem_ctrls.wrQLenPdf::28                    118                       # What write queue length does an incoming req see
system.mem_ctrls.wrQLenPdf::29                    118                       # What write queue length does an incoming req see
system.mem_ctrls.wrQLenPdf::30                    116                       # What write queue length does an incoming req see
system.mem_ctrls.wrQLenPdf::31                    116                       # What write queue length does an incoming req see
system.mem_ctrls.wrQLenPdf::32                    116                       # What write queue length does an incoming req see
system.mem_ctrls.wrQLenPdf::33                      0                       # What write queue length does an incoming req see
system.mem_ctrls.wrQLenPdf::34                      0                       # What write queue length does an incoming req see
system.mem_ctrls.wrQLenPdf::35                      0                       # What write queue length does an incoming req see
system.mem_ctrls.wrQLenPdf::36                      0                       # What write queue length does an incoming req see
system.mem_ctrls.wrQLenPdf::37                      0                       # What write queue length does an incoming req see
system.mem_ctrls.wrQLenPdf::38                      0                       # What write queue length does an incoming req see
system.mem_ctrls.wrQLenPdf::39                      0                       # What write queue length does an incoming req see
system.mem_ctrls.wrQLenPdf::40                      0                       # What write queue length does an incoming req see
system.mem_ctrls.wrQLenPdf::41                      0                       # What write queue length does an incoming req see
system.mem_ctrls.wrQLenPdf::42                      0                       # What write queue length does an incoming req see
system.mem_ctrls.wrQLenPdf::43                      0                       # What write queue length does an incoming req see
system.mem_ctrls.wrQLenPdf::44                      0                       # What write queue length does an incoming req see
system.mem_ctrls.wrQLenPdf::45                      0                       # What write queue length does an incoming req see
system.mem_ctrls.wrQLenPdf::46                      0                       # What write queue length does an incoming req see
system.mem_ctrls.wrQLenPdf::47                      0                       # What write queue length does an incoming req see
system.mem_ctrls.wrQLenPdf::48                      0                       # What write queue length does an incoming req see
system.mem_ctrls.wrQLenPdf::49                      0                       # What write queue length does an incoming req see
system.mem_ctrls.wrQLenPdf::50                      0                       # What write queue length does an incoming req see
system.mem_ctrls.wrQLenPdf::51                      0                       # What write queue length does an incoming req see
system.mem_ctrls.wrQLenPdf::52                      0                       # What write queue length does an incoming req see
system.mem_ctrls.wrQLenPdf::53                      0                       # What write queue length does an incoming req see
system.mem_ctrls.wrQLenPdf::54                      0                       # What write queue length does an incoming req see
system.mem_ctrls.wrQLenPdf::55                      0                       # What write queue length does an incoming req see
system.mem_ctrls.wrQLenPdf::56                      0                       # What write queue length does an incoming req see
system.mem_ctrls.wrQLenPdf::57                      0                       # What write queue length does an incoming req see
system.mem_ctrls.wrQLenPdf::58                      0                       # What write queue length does an incoming req see
system.mem_ctrls.wrQLenPdf::59                      0                       # What write queue length does an incoming req see
system.mem_ctrls.wrQLenPdf::60                      0                       # What write queue length does an incoming req see
system.mem_ctrls.wrQLenPdf::61                      0                       # What write queue length does an incoming req see
system.mem_ctrls.wrQLenPdf::62                      0                       # What write queue length does an incoming req see
system.mem_ctrls.wrQLenPdf::63                      0                       # What write queue length does an incoming req see
system.mem_ctrls.bytesPerActivate::samples          845                       # Bytes accessed per row activation
system.mem_ctrls.bytesPerActivate::mean    311.517160                       # Bytes accessed per row activation
system.mem_ctrls.bytesPerActivate::gmean   205.274101                       # Bytes accessed per row activation
system.mem_ctrls.bytesPerActivate::stdev   286.903907                       # Bytes accessed per row activation
system.mem_ctrls.bytesPerActivate::0-127          232     27.46%     27.46% # Bytes accessed per row activation
system.mem_ctrls.bytesPerActivate::128-255          217     25.68%     53.14% # Bytes accessed per row activation
system.mem_ctrls.bytesPerActivate::256-383          123     14.56%     67.69% # Bytes accessed per row activation
system.mem_ctrls.bytesPerActivate::384-511           91     10.77%     78.46% # Bytes accessed per row activation
system.mem_ctrls.bytesPerActivate::512-639           50      5.92%     84.38% # Bytes accessed per row activation
system.mem_ctrls.bytesPerActivate::640-767           37      4.38%     88.76% # Bytes accessed per row activation
system.mem_ctrls.bytesPerActivate::768-895           19      2.25%     91.01% # Bytes accessed per row activation
system.mem_ctrls.bytesPerActivate::896-1023           15      1.78%     92.78% # Bytes accessed per row activation
system.mem_ctrls.bytesPerActivate::1024-1151           61      7.22%    100.00% # Bytes accessed per row activation
system.mem_ctrls.bytesPerActivate::total          845                       # Bytes accessed per row activation
system.mem_ctrls.rdPerTurnAround::samples          116                       # Reads before turning the bus around for writes
system.mem_ctrls.rdPerTurnAround::mean      19.137931                       # Reads before turning the bus around for writes
system.mem_ctrls.rdPerTurnAround::gmean     17.479713                       # Reads before turning the bus around for writes
system.mem_ctrls.rdPerTurnAround::stdev     11.589273                       # Reads before turning the bus around for writes
system.mem_ctrls.rdPerTurnAround::8-11              7      6.03%      6.03% # Reads before turning the bus around for writes
system.mem_ctrls.rdPerTurnAround::12-15            48     41.38%     47.41% # Reads before turning the bus around for writes
system.mem_ctrls.rdPerTurnAround::16-19            27     23.28%     70.69% # Reads before turning the bus around for writes
system.mem_ctrls.rdPerTurnAround::20-23            16     13.79%     84.48% # Reads before turning the bus around for writes
system.mem_ctrls.rdPerTurnAround::24-27             4      3.45%     87.93% # Reads before turning the bus around for writes
system.mem_ctrls.rdPerTurnAround::28-31             1      0.86%     88.79% # Reads before turning the bus around for writes
system.mem_ctrls.rdPerTurnAround::32-35             7      6.03%     94.83% # Reads before turning the bus around for writes
system.mem_ctrls.rdPerTurnAround::36-39             2      1.72%     96.55% # Reads before turning the bus around for writes
system.mem_ctrls.rdPerTurnAround::40-43             1      0.86%     97.41% # Reads before turning the bus around for writes
system.mem_ctrls.rdPerTurnAround::44-47             1      0.86%     98.28% # Reads before turning the bus around for writes
system.mem_ctrls.rdPerTurnAround::48-51             1      0.86%     99.14% # Reads before turning the bus around for writes
system.mem_ctrls.rdPerTurnAround::112-115            1      0.86%    100.00% # Reads before turning the bus around for writes
system.mem_ctrls.rdPerTurnAround::total           116                       # Reads before turning the bus around for writes
system.mem_ctrls.wrPerTurnAround::samples          116                       # Writes before turning the bus around for reads
system.mem_ctrls.wrPerTurnAround::mean      16.353448                       # Writes before turning the bus around for reads
system.mem_ctrls.wrPerTurnAround::gmean     16.329533                       # Writes before turning the bus around for reads
system.mem_ctrls.wrPerTurnAround::stdev      0.934873                       # Writes before turning the bus around for reads
system.mem_ctrls.wrPerTurnAround::16               97     83.62%     83.62% # Writes before turning the bus around for reads
system.mem_ctrls.wrPerTurnAround::17                7      6.03%     89.66% # Writes before turning the bus around for reads
system.mem_ctrls.wrPerTurnAround::18                6      5.17%     94.83% # Writes before turning the bus around for reads
system.mem_ctrls.wrPerTurnAround::19                3      2.59%     97.41% # Writes before turning the bus around for reads
system.mem_ctrls.wrPerTurnAround::20                2      1.72%     99.14% # Writes before turning the bus around for reads
system.mem_ctrls.wrPerTurnAround::21                1      0.86%    100.00% # Writes before turning the bus around for reads
system.mem_ctrls.wrPerTurnAround::total           116                       # Writes before turning the bus around for reads
system.mem_ctrls.totQLat                     56085750                       # Total ticks spent queuing
system.mem_ctrls.totMemAccLat                98217000                       # Total ticks spent from burst creation until serviced by the DRAM
system.mem_ctrls.totBusLat                   11235000                       # Total ticks spent in databus transfers
system.mem_ctrls.avgQLat                     24960.28                       # Average queueing delay per DRAM burst
system.mem_ctrls.avgBusLat                    5000.00                       # Average bus latency per DRAM burst
system.mem_ctrls.avgMemAccLat                43710.28                       # Average memory access latency per DRAM burst
system.mem_ctrls.avgRdBW                        43.30                       # Average DRAM read bandwidth in MiByte/s
system.mem_ctrls.avgWrBW                        36.56                       # Average achieved write bandwidth in MiByte/s
system.mem_ctrls.avgRdBWSys                     53.80                       # Average system read bandwidth in MiByte/s
system.mem_ctrls.avgWrBWSys                     40.60                       # Average system write bandwidth in MiByte/s
system.mem_ctrls.peakBW                      12800.00                       # Theoretical peak bandwidth in MiByte/s
system.mem_ctrls.busUtil                         0.62                       # Data bus utilization in percentage
system.mem_ctrls.busUtilRead                     0.34                       # Data bus utilization in percentage for reads
system.mem_ctrls.busUtilWrite                    0.29                       # Data bus utilization in percentage for writes
system.mem_ctrls.avgRdQLen                       1.02                       # Average read queue length when enqueuing
system.mem_ctrls.avgWrQLen                      30.67                       # Average write queue length when enqueuing
system.mem_ctrls.readRowHits                     1649                       # Number of row buffer hits during reads
system.mem_ctrls.writeRowHits                    1640                       # Number of row buffer hits during writes
system.mem_ctrls.readRowHitRate                 73.39                       # Row buffer hit rate for reads
system.mem_ctrls.writeRowHitRate                85.19                       # Row buffer hit rate for writes
system.mem_ctrls.avgGap                     677924.98                       # Average gap between requests
system.mem_ctrls.pageHitRate                    78.84                       # Row buffer hit rate, read and write combined
system.mem_ctrls_0.actEnergy                  3070200                       # Energy for activate commands per rank (pJ)
system.mem_ctrls_0.preEnergy                  1609080                       # Energy for precharge commands per rank (pJ)
system.mem_ctrls_0.readEnergy                 7789740                       # Energy for read commands per rank (pJ)
system.mem_ctrls_0.writeEnergy                3878460                       # Energy for write commands per rank (pJ)
system.mem_ctrls_0.refreshEnergy         20283120.000000                       # Energy for refresh commands per rank (pJ)
system.mem_ctrls_0.actBackEnergy             25025850                       # Energy for active background per rank (pJ)
system.mem_ctrls_0.preBackEnergy              1108800                       # Energy for precharge background per rank (pJ)
system.mem_ctrls_0.actPowerDownEnergy        43611840                       # Energy for active power-down per rank (pJ)
system.mem_ctrls_0.prePowerDownEnergy        21192000                       # Energy for precharge power-down per rank (pJ)
system.mem_ctrls_0.selfRefreshEnergy        750880080                       # Energy for self refresh per rank (pJ)
system.mem_ctrls_0.totalEnergy              878449170                       # Total energy per rank (pJ)
system.mem_ctrls_0.averagePower            264.501006                       # Core power per rank (mW)
system.mem_ctrls_0.totalIdleTime           3263367500                       # Total Idle time Per DRAM Rank
system.mem_ctrls_0.memoryStateTime::IDLE      1993250                       # Time in different power states
system.mem_ctrls_0.memoryStateTime::REF       8622000                       # Time in different power states
system.mem_ctrls_0.memoryStateTime::SREF   3112557500                       # Time in different power states
system.mem_ctrls_0.memoryStateTime::PRE_PDN     55184750                       # Time in different power states
system.mem_ctrls_0.memoryStateTime::ACT      47171250                       # Time in different power states
system.mem_ctrls_0.memoryStateTime::ACT_PDN     95627250                       # Time in different power states
system.mem_ctrls_1.actEnergy                  3034500                       # Energy for activate commands per rank (pJ)
system.mem_ctrls_1.preEnergy                  1597695                       # Energy for precharge commands per rank (pJ)
system.mem_ctrls_1.readEnergy                 8246700                       # Energy for read commands per rank (pJ)
system.mem_ctrls_1.writeEnergy                6023880                       # Energy for write commands per rank (pJ)
system.mem_ctrls_1.refreshEnergy         20283120.000000                       # Energy for refresh commands per rank (pJ)
system.mem_ctrls_1.actBackEnergy             25513200                       # Energy for active background per rank (pJ)
system.mem_ctrls_1.preBackEnergy              1081440                       # Energy for precharge background per rank (pJ)
system.mem_ctrls_1.actPowerDownEnergy        43754910                       # Energy for active power-down per rank (pJ)
system.mem_ctrls_1.prePowerDownEnergy        20461440                       # Energy for precharge power-down per rank (pJ)
system.mem_ctrls_1.selfRefreshEnergy        751021980                       # Energy for self refresh per rank (pJ)
system.mem_ctrls_1.totalEnergy              881018865                       # Total energy per rank (pJ)
system.mem_ctrls_1.averagePower            265.274741                       # Core power per rank (mW)
system.mem_ctrls_1.totalIdleTime           3262380000                       # Total Idle time Per DRAM Rank
system.mem_ctrls_1.memoryStateTime::IDLE      2044000                       # Time in different power states
system.mem_ctrls_1.memoryStateTime::REF       8622000                       # Time in different power states
system.mem_ctrls_1.memoryStateTime::SREF   3113151500                       # Time in different power states
system.mem_ctrls_1.memoryStateTime::PRE_PDN     53284750                       # Time in different power states
system.mem_ctrls_1.memoryStateTime::ACT      48110000                       # Time in different power states
system.mem_ctrls_1.memoryStateTime::ACT_PDN     95943750                       # Time in different power states
system.pwrStateResidencyTicks::UNDEFINED   3321156000                       # Cumulative time (in ticks) in various power states
system.cpu.branchPred.lookups                 1113975                       # Number of BP lookups
system.cpu.branchPred.condPredicted            857993                       # Number of conditional branches predicted
system.cpu.branchPred.condIncorrect             25477                       # Number of conditional branches incorrect
system.cpu.branchPred.BTBLookups               640213                       # Number of BTB lookups
system.cpu.branchPred.BTBHits                  584389                       # Number of BTB hits
system.cpu.branchPred.BTBCorrect                    0                       # Number of correct BTB predictions (this stat may not work properly.
system.cpu.branchPred.BTBHitPct             91.280402                       # BTB Hit Percentage
system.cpu.branchPred.usedRAS                  108113                       # Number of times the RAS was used to get a target.
system.cpu.branchPred.RASInCorrect                114                       # Number of incorrect RAS predictions.
system.cpu.branchPred.indirectLookups           54857                       # Number of indirect predictor lookups.
system.cpu.branchPred.indirectHits              54238                       # Number of indirect target hits.
system.cpu.branchPred.indirectMisses              619                       # Number of indirect misses.
system.cpu.branchPredindirectMispredicted          225                       # Number of mispredicted indirect branches.
system.cpu_voltage_domain.voltage                   1                       # Voltage in Volts
system.cpu_clk_domain.clock                       500                       # Clock period in ticks
system.cpu.dstage2_mmu.stage2_tlb.walker.pwrStateResidencyTicks::UNDEFINED   3321156000                       # Cumulative time (in ticks) in various power states
system.cpu.dstage2_mmu.stage2_tlb.walker.walks            0                       # Table walker walks requested
system.cpu.dstage2_mmu.stage2_tlb.walker.walkRequestOrigin_Requested::Data            0                       # Table walker requests started/completed, data/inst
system.cpu.dstage2_mmu.stage2_tlb.walker.walkRequestOrigin_Requested::Inst            0                       # Table walker requests started/completed, data/inst
system.cpu.dstage2_mmu.stage2_tlb.walker.walkRequestOrigin_Requested::total            0                       # Table walker requests started/completed, data/inst
system.cpu.dstage2_mmu.stage2_tlb.walker.walkRequestOrigin_Completed::Data            0                       # Table walker requests started/completed, data/inst
system.cpu.dstage2_mmu.stage2_tlb.walker.walkRequestOrigin_Completed::Inst            0                       # Table walker requests started/completed, data/inst
system.cpu.dstage2_mmu.stage2_tlb.walker.walkRequestOrigin_Completed::total            0                       # Table walker requests started/completed, data/inst
system.cpu.dstage2_mmu.stage2_tlb.walker.walkRequestOrigin::total            0                       # Table walker requests started/completed, data/inst
system.cpu.dstage2_mmu.stage2_tlb.inst_hits            0                       # ITB inst hits
system.cpu.dstage2_mmu.stage2_tlb.inst_misses            0                       # ITB inst misses
system.cpu.dstage2_mmu.stage2_tlb.read_hits            0                       # DTB read hits
system.cpu.dstage2_mmu.stage2_tlb.read_misses            0                       # DTB read misses
system.cpu.dstage2_mmu.stage2_tlb.write_hits            0                       # DTB write hits
system.cpu.dstage2_mmu.stage2_tlb.write_misses            0                       # DTB write misses
system.cpu.dstage2_mmu.stage2_tlb.flush_tlb            0                       # Number of times complete TLB was flushed
system.cpu.dstage2_mmu.stage2_tlb.flush_tlb_mva            0                       # Number of times TLB was flushed by MVA
system.cpu.dstage2_mmu.stage2_tlb.flush_tlb_mva_asid            0                       # Number of times TLB was flushed by MVA & ASID
system.cpu.dstage2_mmu.stage2_tlb.flush_tlb_asid            0                       # Number of times TLB was flushed by ASID
system.cpu.dstage2_mmu.stage2_tlb.flush_entries            0                       # Number of entries that have been flushed from TLB
system.cpu.dstage2_mmu.stage2_tlb.align_faults            0                       # Number of TLB faults due to alignment restrictions
system.cpu.dstage2_mmu.stage2_tlb.prefetch_faults            0                       # Number of TLB faults due to prefetch
system.cpu.dstage2_mmu.stage2_tlb.domain_faults            0                       # Number of TLB faults due to domain restrictions
system.cpu.dstage2_mmu.stage2_tlb.perms_faults            0                       # Number of TLB faults due to permissions restrictions
system.cpu.dstage2_mmu.stage2_tlb.read_accesses            0                       # DTB read accesses
system.cpu.dstage2_mmu.stage2_tlb.write_accesses            0                       # DTB write accesses
system.cpu.dstage2_mmu.stage2_tlb.inst_accesses            0                       # ITB inst accesses
system.cpu.dstage2_mmu.stage2_tlb.hits              0                       # DTB hits
system.cpu.dstage2_mmu.stage2_tlb.misses            0                       # DTB misses
system.cpu.dstage2_mmu.stage2_tlb.accesses            0                       # DTB accesses
system.cpu.dtb.walker.pwrStateResidencyTicks::UNDEFINED   3321156000                       # Cumulative time (in ticks) in various power states
system.cpu.dtb.walker.walks                         0                       # Table walker walks requested
system.cpu.dtb.walker.walkRequestOrigin_Requested::Data            0                       # Table walker requests started/completed, data/inst
system.cpu.dtb.walker.walkRequestOrigin_Requested::Inst            0                       # Table walker requests started/completed, data/inst
system.cpu.dtb.walker.walkRequestOrigin_Requested::total            0                       # Table walker requests started/completed, data/inst
system.cpu.dtb.walker.walkRequestOrigin_Completed::Data            0                       # Table walker requests started/completed, data/inst
system.cpu.dtb.walker.walkRequestOrigin_Completed::Inst            0                       # Table walker requests started/completed, data/inst
system.cpu.dtb.walker.walkRequestOrigin_Completed::total            0                       # Table walker requests started/completed, data/inst
system.cpu.dtb.walker.walkRequestOrigin::total            0                       # Table walker requests started/completed, data/inst
system.cpu.dtb.inst_hits                            0                       # ITB inst hits
system.cpu.dtb.inst_misses                          0                       # ITB inst misses
system.cpu.dtb.read_hits                            0                       # DTB read hits
system.cpu.dtb.read_misses                          0                       # DTB read misses
system.cpu.dtb.write_hits                           0                       # DTB write hits
system.cpu.dtb.write_misses                         0                       # DTB write misses
system.cpu.dtb.flush_tlb                            0                       # Number of times complete TLB was flushed
system.cpu.dtb.flush_tlb_mva                        0                       # Number of times TLB was flushed by MVA
system.cpu.dtb.flush_tlb_mva_asid                   0                       # Number of times TLB was flushed by MVA & ASID
system.cpu.dtb.flush_tlb_asid                       0                       # Number of times TLB was flushed by ASID
system.cpu.dtb.flush_entries                        0                       # Number of entries that have been flushed from TLB
system.cpu.dtb.align_faults                         0                       # Number of TLB faults due to alignment restrictions
system.cpu.dtb.prefetch_faults                      0                       # Number of TLB faults due to prefetch
system.cpu.dtb.domain_faults                        0                       # Number of TLB faults due to domain restrictions
system.cpu.dtb.perms_faults                         0                       # Number of TLB faults due to permissions restrictions
system.cpu.dtb.read_accesses                        0                       # DTB read accesses
system.cpu.dtb.write_accesses                       0                       # DTB write accesses
system.cpu.dtb.inst_accesses                        0                       # ITB inst accesses
system.cpu.dtb.hits                                 0                       # DTB hits
system.cpu.dtb.misses                               0                       # DTB misses
system.cpu.dtb.accesses                             0                       # DTB accesses
system.cpu.istage2_mmu.stage2_tlb.walker.pwrStateResidencyTicks::UNDEFINED   3321156000                       # Cumulative time (in ticks) in various power states
system.cpu.istage2_mmu.stage2_tlb.walker.walks            0                       # Table walker walks requested
system.cpu.istage2_mmu.stage2_tlb.walker.walkRequestOrigin_Requested::Data            0                       # Table walker requests started/completed, data/inst
system.cpu.istage2_mmu.stage2_tlb.walker.walkRequestOrigin_Requested::Inst            0                       # Table walker requests started/completed, data/inst
system.cpu.istage2_mmu.stage2_tlb.walker.walkRequestOrigin_Requested::total            0                       # Table walker requests started/completed, data/inst
system.cpu.istage2_mmu.stage2_tlb.walker.walkRequestOrigin_Completed::Data            0                       # Table walker requests started/completed, data/inst
system.cpu.istage2_mmu.stage2_tlb.walker.walkRequestOrigin_Completed::Inst            0                       # Table walker requests started/completed, data/inst
system.cpu.istage2_mmu.stage2_tlb.walker.walkRequestOrigin_Completed::total            0                       # Table walker requests started/completed, data/inst
system.cpu.istage2_mmu.stage2_tlb.walker.walkRequestOrigin::total            0                       # Table walker requests started/completed, data/inst
system.cpu.istage2_mmu.stage2_tlb.inst_hits            0                       # ITB inst hits
system.cpu.istage2_mmu.stage2_tlb.inst_misses            0                       # ITB inst misses
system.cpu.istage2_mmu.stage2_tlb.read_hits            0                       # DTB read hits
system.cpu.istage2_mmu.stage2_tlb.read_misses            0                       # DTB read misses
system.cpu.istage2_mmu.stage2_tlb.write_hits            0                       # DTB write hits
system.cpu.istage2_mmu.stage2_tlb.write_misses            0                       # DTB write misses
system.cpu.istage2_mmu.stage2_tlb.flush_tlb            0                       # Number of times complete TLB was flushed
system.cpu.istage2_mmu.stage2_tlb.flush_tlb_mva            0                       # Number of times TLB was flushed by MVA
system.cpu.istage2_mmu.stage2_tlb.flush_tlb_mva_asid            0                       # Number of times TLB was flushed by MVA & ASID
system.cpu.istage2_mmu.stage2_tlb.flush_tlb_asid            0                       # Number of times TLB was flushed by ASID
system.cpu.istage2_mmu.stage2_tlb.flush_entries            0                       # Number of entries that have been flushed from TLB
system.cpu.istage2_mmu.stage2_tlb.align_faults            0                       # Number of TLB faults due to alignment restrictions
system.cpu.istage2_mmu.stage2_tlb.prefetch_faults            0                       # Number of TLB faults due to prefetch
system.cpu.istage2_mmu.stage2_tlb.domain_faults            0                       # Number of TLB faults due to domain restrictions
system.cpu.istage2_mmu.stage2_tlb.perms_faults            0                       # Number of TLB faults due to permissions restrictions
system.cpu.istage2_mmu.stage2_tlb.read_accesses            0                       # DTB read accesses
system.cpu.istage2_mmu.stage2_tlb.write_accesses            0                       # DTB write accesses
system.cpu.istage2_mmu.stage2_tlb.inst_accesses            0                       # ITB inst accesses
system.cpu.istage2_mmu.stage2_tlb.hits              0                       # DTB hits
system.cpu.istage2_mmu.stage2_tlb.misses            0                       # DTB misses
system.cpu.istage2_mmu.stage2_tlb.accesses            0                       # DTB accesses
system.cpu.itb.walker.pwrStateResidencyTicks::UNDEFINED   3321156000                       # Cumulative time (in ticks) in various power states
system.cpu.itb.walker.walks                         0                       # Table walker walks requested
system.cpu.itb.walker.walkRequestOrigin_Requested::Data            0                       # Table walker requests started/completed, data/inst
system.cpu.itb.walker.walkRequestOrigin_Requested::Inst            0                       # Table walker requests started/completed, data/inst
system.cpu.itb.walker.walkRequestOrigin_Requested::total            0                       # Table walker requests started/completed, data/inst
system.cpu.itb.walker.walkRequestOrigin_Completed::Data            0                       # Table walker requests started/completed, data/inst
system.cpu.itb.walker.walkRequestOrigin_Completed::Inst            0                       # Table walker requests started/completed, data/inst
system.cpu.itb.walker.walkRequestOrigin_Completed::total            0                       # Table walker requests started/completed, data/inst
system.cpu.itb.walker.walkRequestOrigin::total            0                       # Table walker requests started/completed, data/inst
system.cpu.itb.inst_hits                            0                       # ITB inst hits
system.cpu.itb.inst_misses                          0                       # ITB inst misses
system.cpu.itb.read_hits                            0                       # DTB read hits
system.cpu.itb.read_misses                          0                       # DTB read misses
system.cpu.itb.write_hits                           0                       # DTB write hits
system.cpu.itb.write_misses                         0                       # DTB write misses
system.cpu.itb.flush_tlb                            0                       # Number of times complete TLB was flushed
system.cpu.itb.flush_tlb_mva                        0                       # Number of times TLB was flushed by MVA
system.cpu.itb.flush_tlb_mva_asid                   0                       # Number of times TLB was flushed by MVA & ASID
system.cpu.itb.flush_tlb_asid                       0                       # Number of times TLB was flushed by ASID
system.cpu.itb.flush_entries                        0                       # Number of entries that have been flushed from TLB
system.cpu.itb.align_faults                         0                       # Number of TLB faults due to alignment restrictions
system.cpu.itb.prefetch_faults                      0                       # Number of TLB faults due to prefetch
system.cpu.itb.domain_faults                        0                       # Number of TLB faults due to domain restrictions
system.cpu.itb.perms_faults                         0                       # Number of TLB faults due to permissions restrictions
system.cpu.itb.read_accesses                        0                       # DTB read accesses
system.cpu.itb.write_accesses                       0                       # DTB write accesses
system.cpu.itb.inst_accesses                        0                       # ITB inst accesses
system.cpu.itb.hits                                 0                       # DTB hits
system.cpu.itb.misses                               0                       # DTB misses
system.cpu.itb.accesses                             0                       # DTB accesses
system.cpu.workload.numSyscalls                    36                       # Number of system calls
system.cpu.pwrStateResidencyTicks::ON      3321156000                       # Cumulative time (in ticks) in various power states
system.cpu.numCycles                          6642313                       # number of cpu cycles simulated
system.cpu.numWorkItemsStarted                      0                       # number of work items this cpu started
system.cpu.numWorkItemsCompleted                    0                       # number of work items this cpu completed
system.cpu.fetch.icacheStallCycles              58331                       # Number of cycles fetch is stalled on an Icache miss
system.cpu.fetch.Insts                       11120661                       # Number of instructions fetch has processed
system.cpu.fetch.Branches                     1113975                       # Number of branches that fetch encountered
system.cpu.fetch.predictedBranches             746740                       # Number of branches that fetch has predicted taken
system.cpu.fetch.Cycles                       6447038                       # Number of cycles fetch has run and was not squashing or blocked
system.cpu.fetch.SquashCycles                   51424                       # Number of cycles fetch has spent squashing
system.cpu.fetch.MiscStallCycles                  786                       # Number of cycles fetch has spent waiting on interrupts, or bad addresses, or out of MSHRs
system.cpu.fetch.PendingTrapStallCycles           664                       # Number of stall cycles due to pending traps
system.cpu.fetch.IcacheWaitRetryStallCycles         1131                       # Number of stall cycles due to full MSHR
system.cpu.fetch.CacheLines                   3440929                       # Number of cache lines fetched
system.cpu.fetch.IcacheSquashes                   696                       # Number of outstanding Icache misses that were squashed
system.cpu.fetch.rateDist::samples            6533662                       # Number of instructions fetched each cycle (Total)
system.cpu.fetch.rateDist::mean              1.766692                       # Number of instructions fetched each cycle (Total)
system.cpu.fetch.rateDist::stdev             1.094778                       # Number of instructions fetched each cycle (Total)
system.cpu.fetch.rateDist::underflows               0      0.00%      0.00% # Number of instructions fetched each cycle (Total)
system.cpu.fetch.rateDist::0                   835313     12.78%     12.78% # Number of instructions fetched each cycle (Total)
system.cpu.fetch.rateDist::1                  2349481     35.96%     48.74% # Number of instructions fetched each cycle (Total)
system.cpu.fetch.rateDist::2                   853115     13.06%     61.80% # Number of instructions fetched each cycle (Total)
system.cpu.fetch.rateDist::3                  2495753     38.20%    100.00% # Number of instructions fetched each cycle (Total)
system.cpu.fetch.rateDist::overflows                0      0.00%    100.00% # Number of instructions fetched each cycle (Total)
system.cpu.fetch.rateDist::min_value                0                       # Number of instructions fetched each cycle (Total)
system.cpu.fetch.rateDist::max_value                3                       # Number of instructions fetched each cycle (Total)
system.cpu.fetch.rateDist::total              6533662                       # Number of instructions fetched each cycle (Total)
system.cpu.fetch.branchRate                  0.167709                       # Number of branch fetches per cycle
system.cpu.fetch.rate                        1.674215                       # Number of inst fetches per cycle
system.cpu.decode.IdleCycles                   858890                       # Number of cycles decode is idle
system.cpu.decode.BlockedCycles               1645772                       # Number of cycles decode is blocked
system.cpu.decode.RunCycles                   2908002                       # Number of cycles decode is running
system.cpu.decode.UnblockCycles               1095740                       # Number of cycles decode is unblocking
system.cpu.decode.SquashCycles                  25258                       # Number of cycles decode is squashing
system.cpu.decode.BranchResolved               537891                       # Number of times decode resolved a branch
system.cpu.decode.BranchMispred                   486                       # Number of times decode detected a branch misprediction
system.cpu.decode.DecodedInsts               10749942                       # Number of instructions handled by decode
system.cpu.decode.SquashedInsts                 73040                       # Number of squashed instructions handled by decode
system.cpu.rename.SquashCycles                  25258                       # Number of cycles rename is squashing
system.cpu.rename.IdleCycles                  1381021                       # Number of cycles rename is idle
system.cpu.rename.BlockCycles                  402613                       # Number of cycles rename is blocking
system.cpu.rename.serializeStallCycles          14295                       # count of cycles rename stalled for serializing inst
system.cpu.rename.RunCycles                   3449059                       # Number of cycles rename is running
system.cpu.rename.UnblockCycles               1261416                       # Number of cycles rename is unblocking
system.cpu.rename.RenamedInsts               10622742                       # Number of instructions processed by rename
system.cpu.rename.SquashedInsts                 44320                       # Number of squashed instructions processed by rename
system.cpu.rename.ROBFullEvents                398005                       # Number of times rename has blocked due to ROB full
system.cpu.rename.IQFullEvents                 426621                       # Number of times rename has blocked due to IQ full
system.cpu.rename.LQFullEvents                 114285                       # Number of times rename has blocked due to LQ full
system.cpu.rename.SQFullEvents                   5676                       # Number of times rename has blocked due to SQ full
system.cpu.rename.RenamedOperands             9596361                       # Number of destination operands rename has renamed
system.cpu.rename.RenameLookups              50142033                       # Number of register rename lookups that rename has made
system.cpu.rename.int_rename_lookups         12594127                       # Number of integer rename lookups
system.cpu.rename.fp_rename_lookups                16                       # Number of floating rename lookups
system.cpu.rename.CommittedMaps               8835748                       # Number of HB maps that are committed
system.cpu.rename.UndoneMaps                   760613                       # Number of HB maps that are undone due to squashing
system.cpu.rename.serializingInsts                180                       # count of serializing insts renamed
system.cpu.rename.tempSerializingInsts            149                       # count of temporary serializing insts renamed
system.cpu.rename.skidInsts                   1987317                       # count of insts added to the skid buffer
system.cpu.memDep0.insertedLoads              3817149                       # Number of loads inserted to the mem dependence unit.
system.cpu.memDep0.insertedStores             1837494                       # Number of stores inserted to the mem dependence unit.
system.cpu.memDep0.conflictingLoads           2607671                       # Number of conflicting loads.
system.cpu.memDep0.conflictingStores          1105344                       # Number of conflicting stores.
system.cpu.iq.iqInstsAdded                   10587880                       # Number of instructions added to the IQ (excludes non-spec)
system.cpu.iq.iqNonSpecInstsAdded                 186                       # Number of non-speculative instructions added to the IQ
system.cpu.iq.iqInstsIssued                  10089111                       # Number of instructions issued
system.cpu.iq.iqSquashedInstsIssued             10412                       # Number of squashed instructions issued
system.cpu.iq.iqSquashedInstsExamined          824720                       # Number of squashed instructions iterated over during squash; mainly for profiling
system.cpu.iq.iqSquashedOperandsExamined      2600796                       # Number of squashed operands that are examined and possibly removed from graph
system.cpu.iq.iqSquashedNonSpecRemoved             51                       # Number of squashed non-spec instructions that were removed
system.cpu.iq.issued_per_cycle::samples       6533662                       # Number of insts issued each cycle
system.cpu.iq.issued_per_cycle::mean         1.544174                       # Number of insts issued each cycle
system.cpu.iq.issued_per_cycle::stdev        0.857494                       # Number of insts issued each cycle
system.cpu.iq.issued_per_cycle::underflows            0      0.00%      0.00% # Number of insts issued each cycle
system.cpu.iq.issued_per_cycle::0              640588      9.80%      9.80% # Number of insts issued each cycle
system.cpu.iq.issued_per_cycle::1             2566333     39.28%     49.08% # Number of insts issued each cycle
system.cpu.iq.issued_per_cycle::2             2539315     38.87%     87.95% # Number of insts issued each cycle
system.cpu.iq.issued_per_cycle::3              705557     10.80%     98.75% # Number of insts issued each cycle
system.cpu.iq.issued_per_cycle::4               81868      1.25%    100.00% # Number of insts issued each cycle
system.cpu.iq.issued_per_cycle::5                   1      0.00%    100.00% # Number of insts issued each cycle
system.cpu.iq.issued_per_cycle::6                   0      0.00%    100.00% # Number of insts issued each cycle
system.cpu.iq.issued_per_cycle::7                   0      0.00%    100.00% # Number of insts issued each cycle
system.cpu.iq.issued_per_cycle::8                   0      0.00%    100.00% # Number of insts issued each cycle
system.cpu.iq.issued_per_cycle::overflows            0      0.00%    100.00% # Number of insts issued each cycle
system.cpu.iq.issued_per_cycle::min_value            0                       # Number of insts issued each cycle
system.cpu.iq.issued_per_cycle::max_value            5                       # Number of insts issued each cycle
system.cpu.iq.issued_per_cycle::total         6533662                       # Number of insts issued each cycle
system.cpu.iq.fu_full::No_OpClass                   0      0.00%      0.00% # attempts to use FU when none available
system.cpu.iq.fu_full::IntAlu                  128242      5.41%      5.41% # attempts to use FU when none available
system.cpu.iq.fu_full::IntMult                      2      0.00%      5.41% # attempts to use FU when none available
system.cpu.iq.fu_full::IntDiv                       0      0.00%      5.41% # attempts to use FU when none available
system.cpu.iq.fu_full::FloatAdd                     0      0.00%      5.41% # attempts to use FU when none available
system.cpu.iq.fu_full::FloatCmp                     0      0.00%      5.41% # attempts to use FU when none available
system.cpu.iq.fu_full::FloatCvt                     0      0.00%      5.41% # attempts to use FU when none available
system.cpu.iq.fu_full::FloatMult                    0      0.00%      5.41% # attempts to use FU when none available
system.cpu.iq.fu_full::FloatMultAcc                 0      0.00%      5.41% # attempts to use FU when none available
system.cpu.iq.fu_full::FloatDiv                     0      0.00%      5.41% # attempts to use FU when none available
system.cpu.iq.fu_full::FloatMisc                    0      0.00%      5.41% # attempts to use FU when none available
system.cpu.iq.fu_full::FloatSqrt                    0      0.00%      5.41% # attempts to use FU when none available
system.cpu.iq.fu_full::SimdAdd                      0      0.00%      5.41% # attempts to use FU when none available
system.cpu.iq.fu_full::SimdAddAcc                   0      0.00%      5.41% # attempts to use FU when none available
system.cpu.iq.fu_full::SimdAlu                      0      0.00%      5.41% # attempts to use FU when none available
system.cpu.iq.fu_full::SimdCmp                      0      0.00%      5.41% # attempts to use FU when none available
system.cpu.iq.fu_full::SimdCvt                      0      0.00%      5.41% # attempts to use FU when none available
system.cpu.iq.fu_full::SimdMisc                     0      0.00%      5.41% # attempts to use FU when none available
system.cpu.iq.fu_full::SimdMult                     0      0.00%      5.41% # attempts to use FU when none available
system.cpu.iq.fu_full::SimdMultAcc                  0      0.00%      5.41% # attempts to use FU when none available
system.cpu.iq.fu_full::SimdShift                    0      0.00%      5.41% # attempts to use FU when none available
system.cpu.iq.fu_full::SimdShiftAcc                 0      0.00%      5.41% # attempts to use FU when none available
system.cpu.iq.fu_full::SimdSqrt                     0      0.00%      5.41% # attempts to use FU when none available
system.cpu.iq.fu_full::SimdFloatAdd                 0      0.00%      5.41% # attempts to use FU when none available
system.cpu.iq.fu_full::SimdFloatAlu                 0      0.00%      5.41% # attempts to use FU when none available
system.cpu.iq.fu_full::SimdFloatCmp                 0      0.00%      5.41% # attempts to use FU when none available
system.cpu.iq.fu_full::SimdFloatCvt                 0      0.00%      5.41% # attempts to use FU when none available
system.cpu.iq.fu_full::SimdFloatDiv                 0      0.00%      5.41% # attempts to use FU when none available
system.cpu.iq.fu_full::SimdFloatMisc                0      0.00%      5.41% # attempts to use FU when none available
system.cpu.iq.fu_full::SimdFloatMult                0      0.00%      5.41% # attempts to use FU when none available
system.cpu.iq.fu_full::SimdFloatMultAcc             0      0.00%      5.41% # attempts to use FU when none available
system.cpu.iq.fu_full::SimdFloatSqrt                0      0.00%      5.41% # attempts to use FU when none available
system.cpu.iq.fu_full::MemRead                2068996     87.36%     92.77% # attempts to use FU when none available
system.cpu.iq.fu_full::MemWrite                171235      7.23%    100.00% # attempts to use FU when none available
system.cpu.iq.fu_full::FloatMemRead                 0      0.00%    100.00% # attempts to use FU when none available
system.cpu.iq.fu_full::FloatMemWrite               12      0.00%    100.00% # attempts to use FU when none available
system.cpu.iq.fu_full::IprAccess                    0      0.00%    100.00% # attempts to use FU when none available
system.cpu.iq.fu_full::InstPrefetch                 0      0.00%    100.00% # attempts to use FU when none available
system.cpu.iq.FU_type_0::No_OpClass                 0      0.00%      0.00% # Type of FU issued
system.cpu.iq.FU_type_0::IntAlu               4713831     46.72%     46.72% # Type of FU issued
system.cpu.iq.FU_type_0::IntMult                  144      0.00%     46.72% # Type of FU issued
system.cpu.iq.FU_type_0::IntDiv                     0      0.00%     46.72% # Type of FU issued
system.cpu.iq.FU_type_0::FloatAdd                   0      0.00%     46.72% # Type of FU issued
system.cpu.iq.FU_type_0::FloatCmp                   0      0.00%     46.72% # Type of FU issued
system.cpu.iq.FU_type_0::FloatCvt                   0      0.00%     46.72% # Type of FU issued
system.cpu.iq.FU_type_0::FloatMult                  0      0.00%     46.72% # Type of FU issued
system.cpu.iq.FU_type_0::FloatMultAcc               0      0.00%     46.72% # Type of FU issued
system.cpu.iq.FU_type_0::FloatDiv                   0      0.00%     46.72% # Type of FU issued
system.cpu.iq.FU_type_0::FloatMisc                  0      0.00%     46.72% # Type of FU issued
system.cpu.iq.FU_type_0::FloatSqrt                  0      0.00%     46.72% # Type of FU issued
system.cpu.iq.FU_type_0::SimdAdd                    0      0.00%     46.72% # Type of FU issued
system.cpu.iq.FU_type_0::SimdAddAcc                 0      0.00%     46.72% # Type of FU issued
system.cpu.iq.FU_type_0::SimdAlu                    0      0.00%     46.72% # Type of FU issued
system.cpu.iq.FU_type_0::SimdCmp                    0      0.00%     46.72% # Type of FU issued
system.cpu.iq.FU_type_0::SimdCvt                    0      0.00%     46.72% # Type of FU issued
system.cpu.iq.FU_type_0::SimdMisc                   0      0.00%     46.72% # Type of FU issued
system.cpu.iq.FU_type_0::SimdMult                   0      0.00%     46.72% # Type of FU issued
system.cpu.iq.FU_type_0::SimdMultAcc                0      0.00%     46.72% # Type of FU issued
system.cpu.iq.FU_type_0::SimdShift                  0      0.00%     46.72% # Type of FU issued
system.cpu.iq.FU_type_0::SimdShiftAcc               0      0.00%     46.72% # Type of FU issued
system.cpu.iq.FU_type_0::SimdSqrt                   0      0.00%     46.72% # Type of FU issued
system.cpu.iq.FU_type_0::SimdFloatAdd               0      0.00%     46.72% # Type of FU issued
system.cpu.iq.FU_type_0::SimdFloatAlu               0      0.00%     46.72% # Type of FU issued
system.cpu.iq.FU_type_0::SimdFloatCmp               0      0.00%     46.72% # Type of FU issued
system.cpu.iq.FU_type_0::SimdFloatCvt               0      0.00%     46.72% # Type of FU issued
system.cpu.iq.FU_type_0::SimdFloatDiv               0      0.00%     46.72% # Type of FU issued
system.cpu.iq.FU_type_0::SimdFloatMisc              7      0.00%     46.72% # Type of FU issued
system.cpu.iq.FU_type_0::SimdFloatMult              0      0.00%     46.72% # Type of FU issued
system.cpu.iq.FU_type_0::SimdFloatMultAcc            0      0.00%     46.72% # Type of FU issued
system.cpu.iq.FU_type_0::SimdFloatSqrt              0      0.00%     46.72% # Type of FU issued
system.cpu.iq.FU_type_0::MemRead              3638986     36.07%     82.79% # Type of FU issued
system.cpu.iq.FU_type_0::MemWrite             1736127     17.21%    100.00% # Type of FU issued
system.cpu.iq.FU_type_0::FloatMemRead               0      0.00%    100.00% # Type of FU issued
system.cpu.iq.FU_type_0::FloatMemWrite             16      0.00%    100.00% # Type of FU issued
system.cpu.iq.FU_type_0::IprAccess                  0      0.00%    100.00% # Type of FU issued
system.cpu.iq.FU_type_0::InstPrefetch               0      0.00%    100.00% # Type of FU issued
system.cpu.iq.FU_type_0::total               10089111                       # Type of FU issued
system.cpu.iq.rate                           1.518915                       # Inst issue rate
system.cpu.iq.fu_busy_cnt                     2368487                       # FU busy when requested
system.cpu.iq.fu_busy_rate                   0.234757                       # FU busy rate (busy events/executed inst)
system.cpu.iq.int_inst_queue_reads           29090739                       # Number of integer instruction queue reads
system.cpu.iq.int_inst_queue_writes          11413000                       # Number of integer instruction queue writes
system.cpu.iq.int_inst_queue_wakeup_accesses     10043585                       # Number of integer instruction queue wakeup accesses
system.cpu.iq.fp_inst_queue_reads                  44                       # Number of floating instruction queue reads
system.cpu.iq.fp_inst_queue_writes                 16                       # Number of floating instruction queue writes
system.cpu.iq.fp_inst_queue_wakeup_accesses           16                       # Number of floating instruction queue wakeup accesses
system.cpu.iq.int_alu_accesses               12457570                       # Number of integer alu accesses
system.cpu.iq.fp_alu_accesses                      28                       # Number of floating point alu accesses
system.cpu.iew.lsq.thread0.forwLoads          2072952                       # Number of loads that had data forwarded from stores
system.cpu.iew.lsq.thread0.invAddrLoads             0                       # Number of loads ignored due to an invalid address
system.cpu.iew.lsq.thread0.squashedLoads       291359                       # Number of loads squashed
system.cpu.iew.lsq.thread0.ignoredResponses           23                       # Number of memory responses ignored because the instruction is squashed
system.cpu.iew.lsq.thread0.memOrderViolation          231                       # Number of memory ordering violations
system.cpu.iew.lsq.thread0.squashedStores       166421                       # Number of stores squashed
system.cpu.iew.lsq.thread0.invAddrSwpfs             0                       # Number of software prefetches ignored due to an invalid address
system.cpu.iew.lsq.thread0.blockedLoads             0                       # Number of blocked loads due to partial load-store forwarding
system.cpu.iew.lsq.thread0.rescheduledLoads           94                       # Number of loads that were rescheduled
system.cpu.iew.lsq.thread0.cacheBlocked            83                       # Number of times an access to memory failed due to the cache being blocked
system.cpu.iew.iewIdleCycles                        0                       # Number of cycles IEW is idle
system.cpu.iew.iewSquashCycles                  25258                       # Number of cycles IEW is squashing
system.cpu.iew.iewBlockCycles                   94116                       # Number of cycles IEW is blocking
system.cpu.iew.iewUnblockCycles                  1471                       # Number of cycles IEW is unblocking
system.cpu.iew.iewDispatchedInsts            10588081                       # Number of instructions dispatched to IQ
system.cpu.iew.iewDispSquashedInsts                 0                       # Number of squashed instructions skipped by dispatch
system.cpu.iew.iewDispLoadInsts               3817149                       # Number of dispatched load instructions
system.cpu.iew.iewDispStoreInsts              1837494                       # Number of dispatched store instructions
system.cpu.iew.iewDispNonSpecInsts                136                       # Number of dispatched non-speculative instructions
system.cpu.iew.iewIQFullEvents                     36                       # Number of times the IQ has become full, causing a stall
system.cpu.iew.iewLSQFullEvents                  1410                       # Number of times the LSQ has become full, causing a stall
system.cpu.iew.memOrderViolationEvents            231                       # Number of memory order violations
system.cpu.iew.predictedTakenIncorrect           7243                       # Number of branches that were predicted taken incorrectly
system.cpu.iew.predictedNotTakenIncorrect        17892                       # Number of branches that were predicted not taken incorrectly
system.cpu.iew.branchMispredicts                25135                       # Number of branch mispredicts detected at execute
system.cpu.iew.iewExecutedInsts              10061531                       # Number of executed instructions
system.cpu.iew.iewExecLoadInsts               3627800                       # Number of load instructions executed
system.cpu.iew.iewExecSquashedInsts             27580                       # Number of squashed instructions skipped in execute
system.cpu.iew.exec_swp                             0                       # number of swp insts executed
system.cpu.iew.exec_nop                            15                       # number of nop insts executed
system.cpu.iew.exec_refs                      5348735                       # number of memory reference insts executed
system.cpu.iew.exec_branches                   960437                       # Number of branches executed
system.cpu.iew.exec_stores                    1720935                       # Number of stores executed
system.cpu.iew.exec_rate                     1.514763                       # Inst execution rate
system.cpu.iew.wb_sent                       10052488                       # cumulative count of insts sent to commit
system.cpu.iew.wb_count                      10043601                       # cumulative count of insts written-back
system.cpu.iew.wb_producers                   7109809                       # num instructions producing a value
system.cpu.iew.wb_consumers                   8618752                       # num instructions consuming a value
system.cpu.iew.wb_rate                       1.512064                       # insts written-back per cycle
system.cpu.iew.wb_fanout                     0.824923                       # average fanout of values written-back
system.cpu.commit.commitSquashedInsts          782997                       # The number of squashed insts skipped by commit
system.cpu.commit.commitNonSpecStalls             135                       # The number of times commit has been forced to stall to communicate backwards
system.cpu.commit.branchMispredicts             25023                       # The number of times a branch was mispredicted
system.cpu.commit.committed_per_cycle::samples      6417009                       # Number of insts commited each cycle
system.cpu.commit.committed_per_cycle::mean     1.521479                       # Number of insts commited each cycle
system.cpu.commit.committed_per_cycle::stdev     2.084788                       # Number of insts commited each cycle
system.cpu.commit.committed_per_cycle::underflows            0      0.00%      0.00% # Number of insts commited each cycle
system.cpu.commit.committed_per_cycle::0      2425263     37.79%     37.79% # Number of insts commited each cycle
system.cpu.commit.committed_per_cycle::1      2332358     36.35%     74.14% # Number of insts commited each cycle
system.cpu.commit.committed_per_cycle::2       303666      4.73%     78.87% # Number of insts commited each cycle
system.cpu.commit.committed_per_cycle::3       536774      8.36%     87.24% # Number of insts commited each cycle
system.cpu.commit.committed_per_cycle::4        51289      0.80%     88.04% # Number of insts commited each cycle
system.cpu.commit.committed_per_cycle::5       214243      3.34%     91.38% # Number of insts commited each cycle
system.cpu.commit.committed_per_cycle::6        63706      0.99%     92.37% # Number of insts commited each cycle
system.cpu.commit.committed_per_cycle::7       362954      5.66%     98.02% # Number of insts commited each cycle
system.cpu.commit.committed_per_cycle::8       126756      1.98%    100.00% # Number of insts commited each cycle
system.cpu.commit.committed_per_cycle::overflows            0      0.00%    100.00% # Number of insts commited each cycle
system.cpu.commit.committed_per_cycle::min_value            0                       # Number of insts commited each cycle
system.cpu.commit.committed_per_cycle::max_value            8                       # Number of insts commited each cycle
system.cpu.commit.committed_per_cycle::total      6417009                       # Number of insts commited each cycle
system.cpu.commit.committedInsts              9411554                       # Number of instructions committed
system.cpu.commit.committedOps                9763345                       # Number of ops (including micro ops) committed
system.cpu.commit.swp_count                         0                       # Number of s/w prefetches committed
system.cpu.commit.refs                        5196863                       # Number of memory references committed
system.cpu.commit.loads                       3525790                       # Number of loads committed
system.cpu.commit.membars                          50                       # Number of memory barriers committed
system.cpu.commit.branches                     934634                       # Number of branches committed
system.cpu.commit.fp_insts                         16                       # Number of committed floating point instructions.
system.cpu.commit.int_insts                   9040516                       # Number of committed integer instructions.
[...]
system.cpu.dcache.overall_avg_mshr_miss_latency::total 61555.553571                       # average overall mshr miss latency
system.cpu.dtb_walker_cache.tags.pwrStateResidencyTicks::UNDEFINED   3321156000                       # Cumulative time (in ticks) in various power states
system.cpu.dtb_walker_cache.tags.replacements            0                       # number of replacements
system.cpu.dtb_walker_cache.tags.tagsinuse            0                       # Cycle average of tags in use
system.cpu.dtb_walker_cache.tags.total_refs            0                       # Total number of references to valid blocks.
system.cpu.dtb_walker_cache.tags.sampled_refs            0                       # Sample count of references to valid blocks.
system.cpu.dtb_walker_cache.tags.avg_refs          nan                       # Average number of references to valid blocks.
system.cpu.dtb_walker_cache.tags.warmup_cycle            0                       # Cycle when the warmup percentage was hit.
system.cpu.dtb_walker_cache.tags.tag_accesses            0                       # Number of tag accesses
system.cpu.dtb_walker_cache.tags.data_accesses            0                       # Number of data accesses
system.cpu.dtb_walker_cache.pwrStateResidencyTicks::UNDEFINED   3321156000                       # Cumulative time (in ticks) in various power states
system.cpu.dtb_walker_cache.blocked_cycles::no_mshrs            0                       # number of cycles access was blocked
system.cpu.dtb_walker_cache.blocked_cycles::no_targets            0                       # number of cycles access was blocked
system.cpu.dtb_walker_cache.blocked::no_mshrs            0                       # number of cycles access was blocked
system.cpu.dtb_walker_cache.blocked::no_targets            0                       # number of cycles access was blocked
system.cpu.dtb_walker_cache.avg_blocked_cycles::no_mshrs          nan                       # average number of cycles each access was blocked
system.cpu.dtb_walker_cache.avg_blocked_cycles::no_targets          nan                       # average number of cycles each access was blocked
system.cpu.icache.tags.pwrStateResidencyTicks::UNDEFINED   3321156000                       # Cumulative time (in ticks) in various power states
system.cpu.icache.tags.replacements               834                       # number of replacements
system.cpu.icache.tags.tagsinuse           398.997081                       # Cycle average of tags in use
system.cpu.icache.tags.total_refs             3439409                       # Total number of references to valid blocks.
system.cpu.icache.tags.sampled_refs              1278                       # Sample count of references to valid blocks.
system.cpu.icache.tags.avg_refs           2691.243349                       # Average number of references to valid blocks.
system.cpu.icache.tags.warmup_cycle                 0                       # Cycle when the warmup percentage was hit.
system.cpu.icache.tags.occ_blocks::cpu.inst   398.997081                       # Average occupied blocks per requestor
system.cpu.icache.tags.occ_percent::cpu.inst     0.779291                       # Average percentage of cache occupancy
system.cpu.icache.tags.occ_percent::total     0.779291                       # Average percentage of cache occupancy
system.cpu.icache.tags.occ_task_id_blocks::1024          444                       # Occupied blocks per task id
system.cpu.icache.tags.age_task_id_blocks_1024::0           87                       # Occupied blocks per task id
system.cpu.icache.tags.age_task_id_blocks_1024::1           22                       # Occupied blocks per task id
system.cpu.icache.tags.age_task_id_blocks_1024::3          335                       # Occupied blocks per task id
system.cpu.icache.tags.occ_task_id_percent::1024     0.867188                       # Percentage of cache occupancy per task id
system.cpu.icache.tags.tag_accesses           6883114                       # Number of tag accesses
system.cpu.icache.tags.data_accesses          6883114                       # Number of data accesses
system.cpu.icache.pwrStateResidencyTicks::UNDEFINED   3321156000                       # Cumulative time (in ticks) in various power states
system.cpu.icache.ReadReq_hits::cpu.inst      3439409                       # number of ReadReq hits
system.cpu.icache.ReadReq_hits::total         3439409                       # number of ReadReq hits
system.cpu.icache.demand_hits::cpu.inst       3439409                       # number of demand (read+write) hits
system.cpu.icache.demand_hits::total          3439409                       # number of demand (read+write) hits
system.cpu.icache.overall_hits::cpu.inst      3439409                       # number of overall hits
system.cpu.icache.overall_hits::total         3439409                       # number of overall hits
system.cpu.icache.ReadReq_misses::cpu.inst         1509                       # number of ReadReq misses
system.cpu.icache.ReadReq_misses::total          1509                       # number of ReadReq misses
system.cpu.icache.demand_misses::cpu.inst         1509                       # number of demand (read+write) misses
system.cpu.icache.demand_misses::total           1509                       # number of demand (read+write) misses
system.cpu.icache.overall_misses::cpu.inst         1509                       # number of overall misses
system.cpu.icache.overall_misses::total          1509                       # number of overall misses
system.cpu.icache.ReadReq_miss_latency::cpu.inst    105317486                       # number of ReadReq miss cycles
system.cpu.icache.ReadReq_miss_latency::total    105317486                       # number of ReadReq miss cycles
system.cpu.icache.demand_miss_latency::cpu.inst    105317486                       # number of demand (read+write) miss cycles
system.cpu.icache.demand_miss_latency::total    105317486                       # number of demand (read+write) miss cycles
system.cpu.icache.overall_miss_latency::cpu.inst    105317486                       # number of overall miss cycles
system.cpu.icache.overall_miss_latency::total    105317486                       # number of overall miss cycles
system.cpu.icache.ReadReq_accesses::cpu.inst      3440918                       # number of ReadReq accesses(hits+misses)
system.cpu.icache.ReadReq_accesses::total      3440918                       # number of ReadReq accesses(hits+misses)
system.cpu.icache.demand_accesses::cpu.inst      3440918                       # number of demand (read+write) accesses
system.cpu.icache.demand_accesses::total      3440918                       # number of demand (read+write) accesses
system.cpu.icache.overall_accesses::cpu.inst      3440918                       # number of overall (read+write) accesses
system.cpu.icache.overall_accesses::total      3440918                       # number of overall (read+write) accesses
system.cpu.icache.ReadReq_miss_rate::cpu.inst     0.000439                       # miss rate for ReadReq accesses
system.cpu.icache.ReadReq_miss_rate::total     0.000439                       # miss rate for ReadReq accesses
system.cpu.icache.demand_miss_rate::cpu.inst     0.000439                       # miss rate for demand accesses
system.cpu.icache.demand_miss_rate::total     0.000439                       # miss rate for demand accesses
system.cpu.icache.overall_miss_rate::cpu.inst     0.000439                       # miss rate for overall accesses
system.cpu.icache.overall_miss_rate::total     0.000439                       # miss rate for overall accesses
system.cpu.icache.ReadReq_avg_miss_latency::cpu.inst 69792.899934                       # average ReadReq miss latency
system.cpu.icache.ReadReq_avg_miss_latency::total 69792.899934                       # average ReadReq miss latency
system.cpu.icache.demand_avg_miss_latency::cpu.inst 69792.899934                       # average overall miss latency
system.cpu.icache.demand_avg_miss_latency::total 69792.899934                       # average overall miss latency
system.cpu.icache.overall_avg_miss_latency::cpu.inst 69792.899934                       # average overall miss latency
system.cpu.icache.overall_avg_miss_latency::total 69792.899934                       # average overall miss latency
system.cpu.icache.blocked_cycles::no_mshrs        27339                       # number of cycles access was blocked
system.cpu.icache.blocked_cycles::no_targets           13                       # number of cycles access was blocked
system.cpu.icache.blocked::no_mshrs               291                       # number of cycles access was blocked
system.cpu.icache.blocked::no_targets               1                       # number of cycles access was blocked
system.cpu.icache.avg_blocked_cycles::no_mshrs    93.948454                       # average number of cycles each access was blocked
system.cpu.icache.avg_blocked_cycles::no_targets           13                       # average number of cycles each access was blocked
system.cpu.icache.writebacks::writebacks          834                       # number of writebacks
system.cpu.icache.writebacks::total               834                       # number of writebacks
system.cpu.icache.ReadReq_mshr_hits::cpu.inst          229                       # number of ReadReq MSHR hits
system.cpu.icache.ReadReq_mshr_hits::total          229                       # number of ReadReq MSHR hits
system.cpu.icache.demand_mshr_hits::cpu.inst          229                       # number of demand (read+write) MSHR hits
system.cpu.icache.demand_mshr_hits::total          229                       # number of demand (read+write) MSHR hits
system.cpu.icache.overall_mshr_hits::cpu.inst          229                       # number of overall MSHR hits
system.cpu.icache.overall_mshr_hits::total          229                       # number of overall MSHR hits
system.cpu.icache.ReadReq_mshr_misses::cpu.inst         1280                       # number of ReadReq MSHR misses
system.cpu.icache.ReadReq_mshr_misses::total         1280                       # number of ReadReq MSHR misses
system.cpu.icache.demand_mshr_misses::cpu.inst         1280                       # number of demand (read+write) MSHR misses
system.cpu.icache.demand_mshr_misses::total         1280                       # number of demand (read+write) MSHR misses
system.cpu.icache.overall_mshr_misses::cpu.inst         1280                       # number of overall MSHR misses
system.cpu.icache.overall_mshr_misses::total         1280                       # number of overall MSHR misses
system.cpu.icache.ReadReq_mshr_miss_latency::cpu.inst     89172487                       # number of ReadReq MSHR miss cycles
system.cpu.icache.ReadReq_mshr_miss_latency::total     89172487                       # number of ReadReq MSHR miss cycles
system.cpu.icache.demand_mshr_miss_latency::cpu.inst     89172487                       # number of demand (read+write) MSHR miss cycles
system.cpu.icache.demand_mshr_miss_latency::total     89172487                       # number of demand (read+write) MSHR miss cycles
system.cpu.icache.overall_mshr_miss_latency::cpu.inst     89172487                       # number of overall MSHR miss cycles
system.cpu.icache.overall_mshr_miss_latency::total     89172487                       # number of overall MSHR miss cycles
system.cpu.icache.ReadReq_mshr_miss_rate::cpu.inst     0.000372                       # mshr miss rate for ReadReq accesses
system.cpu.icache.ReadReq_mshr_miss_rate::total     0.000372                       # mshr miss rate for ReadReq accesses
system.cpu.icache.demand_mshr_miss_rate::cpu.inst     0.000372                       # mshr miss rate for demand accesses
system.cpu.icache.demand_mshr_miss_rate::total     0.000372                       # mshr miss rate for demand accesses
system.cpu.icache.overall_mshr_miss_rate::cpu.inst     0.000372                       # mshr miss rate for overall accesses
system.cpu.icache.overall_mshr_miss_rate::total     0.000372                       # mshr miss rate for overall accesses
system.cpu.icache.ReadReq_avg_mshr_miss_latency::cpu.inst 69666.005469                       # average ReadReq mshr miss latency
system.cpu.icache.ReadReq_avg_mshr_miss_latency::total 69666.005469                       # average ReadReq mshr miss latency
system.cpu.icache.demand_avg_mshr_miss_latency::cpu.inst 69666.005469                       # average overall mshr miss latency
system.cpu.icache.demand_avg_mshr_miss_latency::total 69666.005469                       # average overall mshr miss latency
system.cpu.icache.overall_avg_mshr_miss_latency::cpu.inst 69666.005469                       # average overall mshr miss latency
system.cpu.icache.overall_avg_mshr_miss_latency::total 69666.005469                       # average overall mshr miss latency
system.cpu.itb_walker_cache.tags.pwrStateResidencyTicks::UNDEFINED   3321156000                       # Cumulative time (in ticks) in various power states
system.cpu.itb_walker_cache.tags.replacements            0                       # number of replacements
system.cpu.itb_walker_cache.tags.tagsinuse            0                       # Cycle average of tags in use
system.cpu.itb_walker_cache.tags.total_refs            0                       # Total number of references to valid blocks.
system.cpu.itb_walker_cache.tags.sampled_refs            0                       # Sample count of references to valid blocks.
system.cpu.itb_walker_cache.tags.avg_refs          nan                       # Average number of references to valid blocks.
system.cpu.itb_walker_cache.tags.warmup_cycle            0                       # Cycle when the warmup percentage was hit.
system.cpu.itb_walker_cache.tags.tag_accesses            0                       # Number of tag accesses
system.cpu.itb_walker_cache.tags.data_accesses            0                       # Number of data accesses
system.cpu.itb_walker_cache.pwrStateResidencyTicks::UNDEFINED   3321156000                       # Cumulative time (in ticks) in various power states
system.cpu.itb_walker_cache.blocked_cycles::no_mshrs            0                       # number of cycles access was blocked
system.cpu.itb_walker_cache.blocked_cycles::no_targets            0                       # number of cycles access was blocked
system.cpu.itb_walker_cache.blocked::no_mshrs            0                       # number of cycles access was blocked
system.cpu.itb_walker_cache.blocked::no_targets            0                       # number of cycles access was blocked
system.cpu.itb_walker_cache.avg_blocked_cycles::no_mshrs          nan                       # average number of cycles each access was blocked
system.cpu.itb_walker_cache.avg_blocked_cycles::no_targets          nan                       # average number of cycles each access was blocked
system.membus.snoop_filter.tot_requests          5122                       # Total number of requests made to the snoop filter.
system.membus.snoop_filter.hit_single_requests         2334                       # Number of requests hitting in the snoop filter with a single holder of the requested data.
system.membus.snoop_filter.hit_multi_requests          223                       # Number of requests hitting in the snoop filter with multiple (>1) holders of the requested data.
system.membus.snoop_filter.tot_snoops               0                       # Total number of snoops made to the snoop filter.
system.membus.snoop_filter.hit_single_snoops            0                       # Number of snoops hitting in the snoop filter with a single holder of the requested data.
system.membus.snoop_filter.hit_multi_snoops            0                       # Number of snoops hitting in the snoop filter with multiple (>1) holders of the requested data.
system.membus.pwrStateResidencyTicks::UNDEFINED   3321156000                       # Cumulative time (in ticks) in various power states
system.membus.trans_dist::ReadResp               2492                       # Transaction distribution
system.membus.trans_dist::WritebackDirty          512                       # Transaction distribution
system.membus.trans_dist::WritebackClean         1818                       # Transaction distribution
system.membus.trans_dist::ReadExReq               298                       # Transaction distribution
system.membus.trans_dist::ReadExResp              298                       # Transaction distribution
system.membus.trans_dist::ReadCleanReq           1280                       # Transaction distribution
system.membus.trans_dist::ReadSharedReq          1214                       # Transaction distribution
system.membus.pkt_count_system.cpu.icache.mem_side::system.mem_ctrls.port         3392                       # Packet count per connected master and slave (bytes)
system.membus.pkt_count_system.cpu.dcache.mem_side::system.mem_ctrls.port         4520                       # Packet count per connected master and slave (bytes)
system.membus.pkt_count::total                   7912                       # Packet count per connected master and slave (bytes)
system.membus.pkt_size_system.cpu.icache.mem_side::system.mem_ctrls.port       135168                       # Cumulative packet size per connected master and slave (bytes)
system.membus.pkt_size_system.cpu.dcache.mem_side::system.mem_ctrls.port       192512                       # Cumulative packet size per connected master and slave (bytes)
system.membus.pkt_size::total                  327680                       # Cumulative packet size per connected master and slave (bytes)
system.membus.snoops                                0                       # Total snoops (count)
system.membus.snoopTraffic                          0                       # Total snoop traffic (bytes)
system.membus.snoop_fanout::samples              2792                       # Request fanout histogram
system.membus.snoop_fanout::mean             0.081304                       # Request fanout histogram
system.membus.snoop_fanout::stdev            0.273350                       # Request fanout histogram
system.membus.snoop_fanout::underflows              0      0.00%      0.00% # Request fanout histogram
system.membus.snoop_fanout::0                    2565     91.87%     91.87% # Request fanout histogram
system.membus.snoop_fanout::1                     227      8.13%    100.00% # Request fanout histogram
system.membus.snoop_fanout::2                       0      0.00%    100.00% # Request fanout histogram
system.membus.snoop_fanout::3                       0      0.00%    100.00% # Request fanout histogram
system.membus.snoop_fanout::4                       0      0.00%    100.00% # Request fanout histogram
system.membus.snoop_fanout::overflows               0      0.00%    100.00% # Request fanout histogram
system.membus.snoop_fanout::min_value               0                       # Request fanout histogram
system.membus.snoop_fanout::max_value               1                       # Request fanout histogram
system.membus.snoop_fanout::total                2792                       # Request fanout histogram
system.membus.reqLayer0.occupancy            15209500                       # Layer occupancy (ticks)
system.membus.reqLayer0.utilization               0.5                       # Layer utilization (%)
system.membus.respLayer1.occupancy            6782748                       # Layer occupancy (ticks)
system.membus.respLayer1.utilization              0.2                       # Layer utilization (%)
system.membus.respLayer2.occupancy            7958494                       # Layer occupancy (ticks)
system.membus.respLayer2.utilization              0.2                       # Layer utilization (%)

---------- End Simulation Statistics   ----------
