
---------- Begin Simulation Statistics ----------
sim_seconds                                  0.003317                       # Number of seconds simulated
sim_ticks                                  3317133000                       # Number of ticks simulated
final_tick                                 3317133000                       # Number of ticks from beginning of simulation (restored from checkpoints and never reset)
sim_freq                                 1000000000000                       # Frequency of simulated ticks
host_inst_rate                                   1769                       # Simulator instruction rate (inst/s)
host_op_rate                                     1835                       # Simulator op (including micro ops) rate (op/s)
host_tick_rate                                 623380                       # Simulator tick rate (ticks/s)
host_mem_usage                                 681456                       # Number of bytes of host memory used
host_seconds                                  5321.21                       # Real time elapsed on the host
sim_insts                                     9411554                       # Number of instructions simulated
sim_ops                                       9763345                       # Number of ops (including micro ops) simulated
system.voltage_domain.voltage                       1                       # Voltage in Volts
system.clk_domain.clock                          1000                       # Clock period in ticks
system.mem_ctrls.pwrStateResidencyTicks::UNDEFINED   3317133000                       # Cumulative time (in ticks) in various power states
system.mem_ctrls.bytes_read::cpu.inst           81536                       # Number of bytes read from this memory
system.mem_ctrls.bytes_read::cpu.data           95872                       # Number of bytes read from this memory
system.mem_ctrls.bytes_read::total             177408                       # Number of bytes read from this memory
system.mem_ctrls.bytes_inst_read::cpu.inst        81536                       # Number of instructions bytes read from this memory
system.mem_ctrls.bytes_inst_read::total         81536                       # Number of instructions bytes read from this memory
system.mem_ctrls.bytes_written::writebacks        32704                       # Number of bytes written to this memory
system.mem_ctrls.bytes_written::total           32704                       # Number of bytes written to this memory
system.mem_ctrls.num_reads::cpu.inst             1274                       # Number of read requests responded to by this memory
system.mem_ctrls.num_reads::cpu.data             1498                       # Number of read requests responded to by this memory
system.mem_ctrls.num_reads::total                2772                       # Number of read requests responded to by this memory
system.mem_ctrls.num_writes::writebacks           511                       # Number of write requests responded to by this memory
system.mem_ctrls.num_writes::total                511                       # Number of write requests responded to by this memory
system.mem_ctrls.bw_read::cpu.inst           24580263                       # Total read bandwidth from this memory (bytes/s)
system.mem_ctrls.bw_read::cpu.data           28902067                       # Total read bandwidth from this memory (bytes/s)
system.mem_ctrls.bw_read::total              53482329                       # Total read bandwidth from this memory (bytes/s)
system.mem_ctrls.bw_inst_read::cpu.inst      24580263                       # Instruction read bandwidth from this memory (bytes/s)
system.mem_ctrls.bw_inst_read::total         24580263                       # Instruction read bandwidth from this memory (bytes/s)
system.mem_ctrls.bw_write::writebacks         9859116                       # Write bandwidth from this memory (bytes/s)
system.mem_ctrls.bw_write::total              9859116                       # Write bandwidth from this memory (bytes/s)
system.mem_ctrls.bw_total::writebacks         9859116                       # Total bandwidth to/from this memory (bytes/s)
system.mem_ctrls.bw_total::cpu.inst          24580263                       # Total bandwidth to/from this memory (bytes/s)
system.mem_ctrls.bw_total::cpu.data          28902067                       # Total bandwidth to/from this memory (bytes/s)
system.mem_ctrls.bw_total::total             63341446                       # Total bandwidth to/from this memory (bytes/s)
system.mem_ctrls.readReqs                        2774                       # Number of read requests accepted
system.mem_ctrls.writeReqs                       2089                       # Number of write requests accepted
system.mem_ctrls.readBursts                      2774                       # Number of DRAM read bursts, including those serviced by the write queue
system.mem_ctrls.writeBursts                     2089                       # Number of DRAM write bursts, including those merged in the write queue
system.mem_ctrls.bytesReadDRAM                 144320                       # Total number of bytes read from DRAM
system.mem_ctrls.bytesReadWrQ                   33216                       # Total number of bytes read from write queue
system.mem_ctrls.bytesWritten                  123904                       # Total number of bytes written to DRAM
system.mem_ctrls.bytesReadSys                  177536                       # Total read bytes from the system interface side
system.mem_ctrls.bytesWrittenSys               133696                       # Total written bytes from the system interface side
system.mem_ctrls.servicedByWrQ                    519                       # Number of DRAM read bursts serviced by the write queue
system.mem_ctrls.mergedWrBursts                   129                       # Number of DRAM write bursts merged with an existing one
system.mem_ctrls.neitherReadNorWriteReqs            0                       # Number of requests that are neither read nor write
system.mem_ctrls.perBankRdBursts::0               261                       # Per bank write bursts
system.mem_ctrls.perBankRdBursts::1                96                       # Per bank write bursts
system.mem_ctrls.perBankRdBursts::2                12                       # Per bank write bursts
system.mem_ctrls.perBankRdBursts::3                77                       # Per bank write bursts
system.mem_ctrls.perBankRdBursts::4               108                       # Per bank write bursts
system.mem_ctrls.perBankRdBursts::5                32                       # Per bank write bursts
system.mem_ctrls.perBankRdBursts::6               340                       # Per bank write bursts
system.mem_ctrls.perBankRdBursts::7               137                       # Per bank write bursts
system.mem_ctrls.perBankRdBursts::8               129                       # Per bank write bursts
system.mem_ctrls.perBankRdBursts::9               158                       # Per bank write bursts
system.mem_ctrls.perBankRdBursts::10               75                       # Per bank write bursts
system.mem_ctrls.perBankRdBursts::11               18                       # Per bank write bursts
system.mem_ctrls.perBankRdBursts::12              152                       # Per bank write bursts
system.mem_ctrls.perBankRdBursts::13              317                       # Per bank write bursts
system.mem_ctrls.perBankRdBursts::14              297                       # Per bank write bursts
system.mem_ctrls.perBankRdBursts::15               46                       # Per bank write bursts
system.mem_ctrls.perBankWrBursts::0               198                       # Per bank write bursts
system.mem_ctrls.perBankWrBursts::1               107                       # Per bank write bursts
system.mem_ctrls.perBankWrBursts::2                12                       # Per bank write bursts
system.mem_ctrls.perBankWrBursts::3                50                       # Per bank write bursts
system.mem_ctrls.perBankWrBursts::4                71                       # Per bank write bursts
system.mem_ctrls.perBankWrBursts::5                13                       # Per bank write bursts
system.mem_ctrls.perBankWrBursts::6               285                       # Per bank write bursts
system.mem_ctrls.perBankWrBursts::7                16                       # Per bank write bursts
system.mem_ctrls.perBankWrBursts::8               103                       # Per bank write bursts
system.mem_ctrls.perBankWrBursts::9               133                       # Per bank write bursts
system.mem_ctrls.perBankWrBursts::10               58                       # Per bank write bursts
system.mem_ctrls.perBankWrBursts::11                5                       # Per bank write bursts
system.mem_ctrls.perBankWrBursts::12               91                       # Per bank write bursts
system.mem_ctrls.perBankWrBursts::13              343                       # Per bank write bursts
system.mem_ctrls.perBankWrBursts::14              407                       # Per bank write bursts
system.mem_ctrls.perBankWrBursts::15               44                       # Per bank write bursts
system.mem_ctrls.numRdRetry                         0                       # Number of times read queue was full causing retry
system.mem_ctrls.numWrRetry                         0                       # Number of times write queue was full causing retry
system.mem_ctrls.totGap                    3317131500                       # Total gap between requests
system.mem_ctrls.readPktSize::0                     0                       # Read request sizes (log2)
system.mem_ctrls.readPktSize::1                     0                       # Read request sizes (log2)
system.mem_ctrls.readPktSize::2                     0                       # Read request sizes (log2)
system.mem_ctrls.readPktSize::3                     0                       # Read request sizes (log2)
system.mem_ctrls.readPktSize::4                     0                       # Read request sizes (log2)
system.mem_ctrls.readPktSize::5                     0                       # Read request sizes (log2)
system.mem_ctrls.readPktSize::6                  2774                       # Read request sizes (log2)
system.mem_ctrls.writePktSize::0                    0                       # Write request sizes (log2)
system.mem_ctrls.writePktSize::1                    0                       # Write request sizes (log2)
system.mem_ctrls.writePktSize::2                    0                       # Write request sizes (log2)
system.mem_ctrls.writePktSize::3                    0                       # Write request sizes (log2)
system.mem_ctrls.writePktSize::4                    0                       # Write request sizes (log2)
system.mem_ctrls.writePktSize::5                    0                       # Write request sizes (log2)
system.mem_ctrls.writePktSize::6                 2089                       # Write request sizes (log2)
system.mem_ctrls.rdQLenPdf::0                    1327                       # What read queue length does an incoming req see
system.mem_ctrls.rdQLenPdf::1                     683                       # What read queue length does an incoming req see
system.mem_ctrls.rdQLenPdf::2                     196                       # What read queue length does an incoming req see
system.mem_ctrls.rdQLenPdf::3                      39                       # What read queue length does an incoming req see
system.mem_ctrls.rdQLenPdf::4                       8                       # What read queue length does an incoming req see
system.mem_ctrls.rdQLenPdf::5                       2                       # What read queue length does an incoming req see
system.mem_ctrls.rdQLenPdf::6                       0                       # What read queue length does an incoming req see
system.mem_ctrls.rdQLenPdf::7                       0                       # What read queue length does an incoming req see
system.mem_ctrls.rdQLenPdf::8                       0                       # What read queue length does an incoming req see
system.mem_ctrls.rdQLenPdf::9                       0                       # What read queue length does an incoming req see
system.mem_ctrls.rdQLenPdf::10                      0                       # What read queue length does an incoming req see
system.mem_ctrls.rdQLenPdf::11                      0                       # What read queue length does an incoming req see
system.mem_ctrls.rdQLenPdf::12                      0                       # What read queue length does an incoming req see
system.mem_ctrls.rdQLenPdf::13                      0                       # What read queue length does an incoming req see
system.mem_ctrls.rdQLenPdf::14                      0                       # What read queue length does an incoming req see
system.mem_ctrls.rdQLenPdf::15                      0                       # What read queue length does an incoming req see
system.mem_ctrls.rdQLenPdf::16                      0                       # What read queue length does an incoming req see
system.mem_ctrls.rdQLenPdf::17                      0                       # What read queue length does an incoming req see
system.mem_ctrls.rdQLenPdf::18                      0                       # What read queue length does an incoming req see
system.mem_ctrls.rdQLenPdf::19                      0                       # What read queue length does an incoming req see
system.mem_ctrls.rdQLenPdf::20                      0                       # What read queue length does an incoming req see
system.mem_ctrls.rdQLenPdf::21                      0                       # What read queue length does an incoming req see
system.mem_ctrls.rdQLenPdf::22                      0                       # What read queue length does an incoming req see
system.mem_ctrls.rdQLenPdf::23                      0                       # What read queue length does an incoming req see
system.mem_ctrls.rdQLenPdf::24                      0                       # What read queue length does an incoming req see
system.mem_ctrls.rdQLenPdf::25                      0                       # What read queue length does an incoming req see
system.mem_ctrls.rdQLenPdf::26                      0                       # What read queue length does an incoming req see
system.mem_ctrls.rdQLenPdf::27                      0                       # What read queue length does an incoming req see
system.mem_ctrls.rdQLenPdf::28                      0                       # What read queue length does an incoming req see
system.mem_ctrls.rdQLenPdf::29                      0                       # What read queue length does an incoming req see
system.mem_ctrls.rdQLenPdf::30                      0                       # What read queue length does an incoming req see
system.mem_ctrls.rdQLenPdf::31                      0                       # What read queue length does an incoming req see
system.mem_ctrls.wrQLenPdf::0                       1                       # What write queue length does an incoming req see
system.mem_ctrls.wrQLenPdf::1                       1                       # What write queue length does an incoming req see
system.mem_ctrls.wrQLenPdf::2                       1                       # What write queue length does an incoming req see
system.mem_ctrls.wrQLenPdf::3                       1                       # What write queue length does an incoming req see
system.mem_ctrls.wrQLenPdf::4                       1                       # What write queue length does an incoming req see
system.mem_ctrls.wrQLenPdf::5                       1                       # What write queue length does an incoming req see
system.mem_ctrls.wrQLenPdf::6                       1                       # What write queue length does an incoming req see
system.mem_ctrls.wrQLenPdf::7                       1                       # What write queue length does an incoming req see
system.mem_ctrls.wrQLenPdf::8                       1                       # What write queue length does an incoming req see
system.mem_ctrls.wrQLenPdf::9                       1                       # What write queue length does an incoming req see
system.mem_ctrls.wrQLenPdf::10                      1                       # What write queue length does an incoming req see
system.mem_ctrls.wrQLenPdf::11                      1                       # What write queue length does an incoming req see
system.mem_ctrls.wrQLenPdf::12                      1                       # What write queue length does an incoming req see
system.mem_ctrls.wrQLenPdf::13                      1                       # What write queue length does an incoming req see
system.mem_ctrls.wrQLenPdf::14                      1                       # What write queue length does an incoming req see
system.mem_ctrls.wrQLenPdf::15                      8                       # What write queue length does an incoming req see
system.mem_ctrls.wrQLenPdf::16                     10                       # What write queue length does an incoming req see
system.mem_ctrls.wrQLenPdf::17                     48                       # What write queue length does an incoming req see
system.mem_ctrls.wrQLenPdf::18                     96                       # What write queue length does an incoming req see
system.mem_ctrls.wrQLenPdf::19                    127                       # What write queue length does an incoming req see
system.mem_ctrls.wrQLenPdf::20                    132                       # What write queue length does an incoming req see
system.mem_ctrls.wrQLenPdf::21                    143                       # What write queue length does an incoming req see
system.mem_ctrls.wrQLenPdf::22                    133                       # What write queue length does an incoming req see
system.mem_ctrls.wrQLenPdf::23                    126                       # What write queue length does an incoming req see
system.mem_ctrls.wrQLenPdf::24                    131                       # What write queue length does an incoming req see
system.mem_ctrls.wrQLenPdf::25                    127                       # What write queue length does an incoming req see
system.mem_ctrls.wrQLenPdf::26                    122                       # What write queue length does an incoming req see
system.mem_ctrls.wrQLenPdf::27                    140                       # What write queue length does an incoming req see
system.mem_ctrls.wrQLenPdf::28                    123                       # What write queue length does an incoming req see
system.mem_ctrls.wrQLenPdf::29                    120                       # What write queue length does an incoming req see
system.mem_ctrls.wrQLenPdf::30                    120                       # What write queue length does an incoming req see
system.mem_ctrls.wrQLenPdf::31                    119                       # What write queue length does an incoming req see
system.mem_ctrls.wrQLenPdf::32                    119                       # What write queue length does an incoming req see
system.mem_ctrls.wrQLenPdf::33                      1                       # What write queue length does an incoming req see
system.mem_ctrls.wrQLenPdf::34                      0                       # What write queue length does an incoming req see
system.mem_ctrls.wrQLenPdf::35                      0                       # What write queue length does an incoming req see
system.mem_ctrls.wrQLenPdf::36                      0                       # What write queue length does an incoming req see
system.mem_ctrls.wrQLenPdf::37                      0                       # What write queue length does an incoming req see
system.mem_ctrls.wrQLenPdf::38                      0                       # What write queue length does an incoming req see
system.mem_ctrls.wrQLenPdf::39                      0                       # What write queue length does an incoming req see
system.mem_ctrls.wrQLenPdf::40                      0                       # What write queue length does an incoming req see
system.mem_ctrls.wrQLenPdf::41                      0                       # What write queue length does an incoming req see
system.mem_ctrls.wrQLenPdf::42                      0                       # What write queue length does an incoming req see
system.mem_ctrls.wrQLenPdf::43                      0                       # What write queue length does an incoming req see
system.mem_ctrls.wrQLenPdf::44                      0                       # What write queue length does an incoming req see
system.mem_ctrls.wrQLenPdf::45                      0                       # What write queue length does an incoming req see
system.mem_ctrls.wrQLenPdf::46                      0                       # What write queue length does an incoming req see
system.mem_ctrls.wrQLenPdf::47                      0                       # What write queue length does an incoming req see
system.mem_ctrls.wrQLenPdf::48                      0                       # What write queue length does an incoming req see
system.mem_ctrls.wrQLenPdf::49                      0                       # What write queue length does an incoming req see
system.mem_ctrls.wrQLenPdf::50                      0                       # What write queue length does an incoming req see
system.mem_ctrls.wrQLenPdf::51                      0                       # What write queue length does an incoming req see
system.mem_ctrls.wrQLenPdf::52                      0                       # What write queue length does an incoming req see
system.mem_ctrls.wrQLenPdf::53                      0                       # What write queue length does an incoming req see
system.mem_ctrls.wrQLenPdf::54                      0                       # What write queue length does an incoming req see
system.mem_ctrls.wrQLenPdf::55                      0                       # What write queue length does an incoming req see
system.mem_ctrls.wrQLenPdf::56                      0                       # What write queue length does an incoming req see
system.mem_ctrls.wrQLenPdf::57                      0                       # What write queue length does an incoming req see
system.mem_ctrls.wrQLenPdf::58                      0                       # What write queue length does an incoming req see
system.mem_ctrls.wrQLenPdf::59                      0                       # What write queue length does an incoming req see
system.mem_ctrls.wrQLenPdf::60                      0                       # What write queue length does an incoming req see
system.mem_ctrls.wrQLenPdf::61                      0                       # What write queue length does an incoming req see
system.mem_ctrls.wrQLenPdf::62                      0                       # What write queue length does an incoming req see
system.mem_ctrls.wrQLenPdf::63                      0                       # What write queue length does an incoming req see
system.mem_ctrls.bytesPerActivate::samples          820                       # Bytes accessed per row activation
system.mem_ctrls.bytesPerActivate::mean    324.839024                       # Bytes accessed per row activation
system.mem_ctrls.bytesPerActivate::gmean   212.068856                       # Bytes accessed per row activation
system.mem_ctrls.bytesPerActivate::stdev   298.727882                       # Bytes accessed per row activation
system.mem_ctrls.bytesPerActivate::0-127          213     25.98%     25.98% # Bytes accessed per row activation
system.mem_ctrls.bytesPerActivate::128-255          222     27.07%     53.05% # Bytes accessed per row activation
system.mem_ctrls.bytesPerActivate::256-383          111     13.54%     66.59% # Bytes accessed per row activation
system.mem_ctrls.bytesPerActivate::384-511           70      8.54%     75.12% # Bytes accessed per row activation
system.mem_ctrls.bytesPerActivate::512-639           59      7.20%     82.32% # Bytes accessed per row activation
system.mem_ctrls.bytesPerActivate::640-767           39      4.76%     87.07% # Bytes accessed per row activation
system.mem_ctrls.bytesPerActivate::768-895           22      2.68%     89.76% # Bytes accessed per row activation
system.mem_ctrls.bytesPerActivate::896-1023           18      2.20%     91.95% # Bytes accessed per row activation
system.mem_ctrls.bytesPerActivate::1024-1151           66      8.05%    100.00% # Bytes accessed per row activation
system.mem_ctrls.bytesPerActivate::total          820                       # Bytes accessed per row activation
system.mem_ctrls.rdPerTurnAround::samples          119                       # Reads before turning the bus around for writes
system.mem_ctrls.rdPerTurnAround::mean      18.815126                       # Reads before turning the bus around for writes
system.mem_ctrls.rdPerTurnAround::gmean     17.195684                       # Reads before turning the bus around for writes
system.mem_ctrls.rdPerTurnAround::stdev     11.211349                       # Reads before turning the bus around for writes
system.mem_ctrls.rdPerTurnAround::8-11             13     10.92%     10.92% # Reads before turning the bus around for writes
system.mem_ctrls.rdPerTurnAround::12-15            40     33.61%     44.54% # Reads before turning the bus around for writes
system.mem_ctrls.rdPerTurnAround::16-19            35     29.41%     73.95% # Reads before turning the bus around for writes
system.mem_ctrls.rdPerTurnAround::20-23            13     10.92%     84.87% # Reads before turning the bus around for writes
system.mem_ctrls.rdPerTurnAround::24-27             4      3.36%     88.24% # Reads before turning the bus around for writes
system.mem_ctrls.rdPerTurnAround::28-31             4      3.36%     91.60% # Reads before turning the bus around for writes
system.mem_ctrls.rdPerTurnAround::32-35             5      4.20%     95.80% # Reads before turning the bus around for writes
system.mem_ctrls.rdPerTurnAround::36-39             1      0.84%     96.64% # Reads before turning the bus around for writes
system.mem_ctrls.rdPerTurnAround::40-43             1      0.84%     97.48% # Reads before turning the bus around for writes
system.mem_ctrls.rdPerTurnAround::44-47             2      1.68%     99.16% # Reads before turning the bus around for writes
system.mem_ctrls.rdPerTurnAround::112-115            1      0.84%    100.00% # Reads before turning the bus around for writes
system.mem_ctrls.rdPerTurnAround::total           119                       # Reads before turning the bus around for writes
system.mem_ctrls.wrPerTurnAround::samples          119                       # Writes before turning the bus around for reads
system.mem_ctrls.wrPerTurnAround::mean      16.268908                       # Writes before turning the bus around for reads
system.mem_ctrls.wrPerTurnAround::gmean     16.250914                       # Writes before turning the bus around for reads
system.mem_ctrls.wrPerTurnAround::stdev      0.809870                       # Writes before turning the bus around for reads
system.mem_ctrls.wrPerTurnAround::16              104     87.39%     87.39% # Writes before turning the bus around for reads
system.mem_ctrls.wrPerTurnAround::17                4      3.36%     90.76% # Writes before turning the bus around for reads
system.mem_ctrls.wrPerTurnAround::18                8      6.72%     97.48% # Writes before turning the bus around for reads
system.mem_ctrls.wrPerTurnAround::19                1      0.84%     98.32% # Writes before turning the bus around for reads
system.mem_ctrls.wrPerTurnAround::20                1      0.84%     99.16% # Writes before turning the bus around for reads
system.mem_ctrls.wrPerTurnAround::21                1      0.84%    100.00% # Writes before turning the bus around for reads
system.mem_ctrls.wrPerTurnAround::total           119                       # Writes before turning the bus around for reads
system.mem_ctrls.totQLat                     57172750                       # Total ticks spent queuing
system.mem_ctrls.totMemAccLat                99454000                       # Total ticks spent from burst creation until serviced by the DRAM
system.mem_ctrls.totBusLat                   11275000                       # Total ticks spent in databus transfers
system.mem_ctrls.avgQLat                     25353.77                       # Average queueing delay per DRAM burst
system.mem_ctrls.avgBusLat                    5000.00                       # Average bus latency per DRAM burst
system.mem_ctrls.avgMemAccLat                44103.77                       # Average memory access latency per DRAM burst
system.mem_ctrls.avgRdBW                        43.51                       # Average DRAM read bandwidth in MiByte/s
system.mem_ctrls.avgWrBW                        37.35                       # Average achieved write bandwidth in MiByte/s
system.mem_ctrls.avgRdBWSys                     53.52                       # Average system read bandwidth in MiByte/s
system.mem_ctrls.avgWrBWSys                     40.30                       # Average system write bandwidth in MiByte/s
system.mem_ctrls.peakBW                      12800.00                       # Theoretical peak bandwidth in MiByte/s
system.mem_ctrls.busUtil                         0.63                       # Data bus utilization in percentage
system.mem_ctrls.busUtilRead                     0.34                       # Data bus utilization in percentage for reads
system.mem_ctrls.busUtilWrite                    0.29                       # Data bus utilization in percentage for writes
system.mem_ctrls.avgRdQLen                       1.02                       # Average read queue length when enqueuing
system.mem_ctrls.avgWrQLen                      24.41                       # Average write queue length when enqueuing
system.mem_ctrls.readRowHits                     1682                       # Number of row buffer hits during reads
system.mem_ctrls.writeRowHits                    1680                       # Number of row buffer hits during writes
system.mem_ctrls.readRowHitRate                 74.59                       # Row buffer hit rate for reads
system.mem_ctrls.writeRowHitRate                85.71                       # Row buffer hit rate for writes
system.mem_ctrls.avgGap                     682116.29                       # Average gap between requests
system.mem_ctrls.pageHitRate                    79.76                       # Row buffer hit rate, read and write combined
system.mem_ctrls_0.actEnergy                  2905980                       # Energy for activate commands per rank (pJ)
system.mem_ctrls_0.preEnergy                  1521795                       # Energy for precharge commands per rank (pJ)
system.mem_ctrls_0.readEnergy                 7582680                       # Energy for read commands per rank (pJ)
system.mem_ctrls_0.writeEnergy                3925440                       # Energy for write commands per rank (pJ)
system.mem_ctrls_0.refreshEnergy         20283120.000000                       # Energy for refresh commands per rank (pJ)
system.mem_ctrls_0.actBackEnergy             23904660                       # Energy for active background per rank (pJ)
system.mem_ctrls_0.preBackEnergy              1050720                       # Energy for precharge background per rank (pJ)
system.mem_ctrls_0.actPowerDownEnergy        45282510                       # Energy for active power-down per rank (pJ)
system.mem_ctrls_0.prePowerDownEnergy        20940960                       # Energy for precharge power-down per rank (pJ)
system.mem_ctrls_0.selfRefreshEnergy        749818680                       # Energy for self refresh per rank (pJ)
system.mem_ctrls_0.totalEnergy              877216545                       # Total energy per rank (pJ)
system.mem_ctrls_0.averagePower            264.450158                       # Core power per rank (mW)
system.mem_ctrls_0.totalIdleTime           3261953500                       # Total Idle time Per DRAM Rank
system.mem_ctrls_0.memoryStateTime::IDLE      1938500                       # Time in different power states
system.mem_ctrls_0.memoryStateTime::REF       8622000                       # Time in different power states
system.mem_ctrls_0.memoryStateTime::SREF   3108136000                       # Time in different power states
system.mem_ctrls_0.memoryStateTime::PRE_PDN     54530750                       # Time in different power states
system.mem_ctrls_0.memoryStateTime::ACT      44619000                       # Time in different power states
system.mem_ctrls_0.memoryStateTime::ACT_PDN     99286750                       # Time in different power states
system.mem_ctrls_1.actEnergy                  3013080                       # Energy for activate commands per rank (pJ)
system.mem_ctrls_1.preEnergy                  1590105                       # Energy for precharge commands per rank (pJ)
system.mem_ctrls_1.readEnergy                 8503740                       # Energy for read commands per rank (pJ)
system.mem_ctrls_1.writeEnergy                6180480                       # Energy for write commands per rank (pJ)
system.mem_ctrls_1.refreshEnergy         22127040.000000                       # Energy for refresh commands per rank (pJ)
system.mem_ctrls_1.actBackEnergy             26835030                       # Energy for active background per rank (pJ)
system.mem_ctrls_1.preBackEnergy              1214880                       # Energy for precharge background per rank (pJ)
system.mem_ctrls_1.actPowerDownEnergy        46112430                       # Energy for active power-down per rank (pJ)
system.mem_ctrls_1.prePowerDownEnergy        23312640                       # Energy for precharge power-down per rank (pJ)
system.mem_ctrls_1.selfRefreshEnergy        746806920                       # Energy for self refresh per rank (pJ)
system.mem_ctrls_1.totalEnergy              885696345                       # Total energy per rank (pJ)
system.mem_ctrls_1.averagePower            267.006522                       # Core power per rank (mW)
system.mem_ctrls_1.totalIdleTime           3255113000                       # Total Idle time Per DRAM Rank
system.mem_ctrls_1.memoryStateTime::IDLE      2290000                       # Time in different power states
system.mem_ctrls_1.memoryStateTime::REF       9408000                       # Time in different power states
system.mem_ctrls_1.memoryStateTime::SREF   3093286500                       # Time in different power states
system.mem_ctrls_1.memoryStateTime::PRE_PDN     60707500                       # Time in different power states
system.mem_ctrls_1.memoryStateTime::ACT      50322000                       # Time in different power states
system.mem_ctrls_1.memoryStateTime::ACT_PDN    101119000                       # Time in different power states
system.pwrStateResidencyTicks::UNDEFINED   3317133000                       # Cumulative time (in ticks) in various power states
system.cpu.branchPred.lookups                 1113805                       # Number of BP lookups
system.cpu.branchPred.condPredicted            857860                       # Number of conditional branches predicted
system.cpu.branchPred.condIncorrect             25467                       # Number of conditional branches incorrect
system.cpu.branchPred.BTBLookups               640143                       # Number of BTB lookups
system.cpu.branchPred.BTBHits                  584339                       # Number of BTB hits
system.cpu.branchPred.BTBCorrect                    0                       # Number of correct BTB predictions (this stat may not work properly.
system.cpu.branchPred.BTBHitPct             91.282573                       # BTB Hit Percentage
system.cpu.branchPred.usedRAS                  108118                       # Number of times the RAS was used to get a target.
system.cpu.branchPred.RASInCorrect                116                       # Number of incorrect RAS predictions.
system.cpu.branchPred.indirectLookups           54842                       # Number of indirect predictor lookups.
system.cpu.branchPred.indirectHits              54250                       # Number of indirect target hits.
system.cpu.branchPred.indirectMisses              592                       # Number of indirect misses.
system.cpu.branchPredindirectMispredicted          219                       # Number of mispredicted indirect branches.
system.cpu_voltage_domain.voltage                   1                       # Voltage in Volts
system.cpu_clk_domain.clock                       500                       # Clock period in ticks
system.cpu.dstage2_mmu.stage2_tlb.walker.pwrStateResidencyTicks::UNDEFINED   3317133000                       # Cumulative time (in ticks) in various power states
system.cpu.dstage2_mmu.stage2_tlb.walker.walks            0                       # Table walker walks requested
system.cpu.dstage2_mmu.stage2_tlb.walker.walkRequestOrigin_Requested::Data            0                       # Table walker requests started/completed, data/inst
system.cpu.dstage2_mmu.stage2_tlb.walker.walkRequestOrigin_Requested::Inst            0                       # Table walker requests started/completed, data/inst
system.cpu.dstage2_mmu.stage2_tlb.walker.walkRequestOrigin_Requested::total            0                       # Table walker requests started/completed, data/inst
system.cpu.dstage2_mmu.stage2_tlb.walker.walkRequestOrigin_Completed::Data            0                       # Table walker requests started/completed, data/inst
system.cpu.dstage2_mmu.stage2_tlb.walker.walkRequestOrigin_Completed::Inst            0                       # Table walker requests started/completed, data/inst
system.cpu.dstage2_mmu.stage2_tlb.walker.walkRequestOrigin_Completed::total            0                       # Table walker requests started/completed, data/inst
system.cpu.dstage2_mmu.stage2_tlb.walker.walkRequestOrigin::total            0                       # Table walker requests started/completed, data/inst
system.cpu.dstage2_mmu.stage2_tlb.inst_hits            0                       # ITB inst hits
system.cpu.dstage2_mmu.stage2_tlb.inst_misses            0                       # ITB inst misses
system.cpu.dstage2_mmu.stage2_tlb.read_hits            0                       # DTB read hits
system.cpu.dstage2_mmu.stage2_tlb.read_misses            0                       # DTB read misses
system.cpu.dstage2_mmu.stage2_tlb.write_hits            0                       # DTB write hits
system.cpu.dstage2_mmu.stage2_tlb.write_misses            0                       # DTB write misses
system.cpu.dstage2_mmu.stage2_tlb.flush_tlb            0                       # Number of times complete TLB was flushed
system.cpu.dstage2_mmu.stage2_tlb.flush_tlb_mva            0                       # Number of times TLB was flushed by MVA
system.cpu.dstage2_mmu.stage2_tlb.flush_tlb_mva_asid            0                       # Number of times TLB was flushed by MVA & ASID
system.cpu.dstage2_mmu.stage2_tlb.flush_tlb_asid            0                       # Number of times TLB was flushed by ASID
system.cpu.dstage2_mmu.stage2_tlb.flush_entries            0                       # Number of entries that have been flushed from TLB
system.cpu.dstage2_mmu.stage2_tlb.align_faults            0                       # Number of TLB faults due to alignment restrictions
system.cpu.dstage2_mmu.stage2_tlb.prefetch_faults            0                       # Number of TLB faults due to prefetch
system.cpu.dstage2_mmu.stage2_tlb.domain_faults            0                       # Number of TLB faults due to domain restrictions
system.cpu.dstage2_mmu.stage2_tlb.perms_faults            0                       # Number of TLB faults due to permissions restrictions
system.cpu.dstage2_mmu.stage2_tlb.read_accesses            0                       # DTB read accesses
system.cpu.dstage2_mmu.stage2_tlb.write_accesses            0                       # DTB write accesses
system.cpu.dstage2_mmu.stage2_tlb.inst_accesses            0                       # ITB inst accesses
system.cpu.dstage2_mmu.stage2_tlb.hits              0                       # DTB hits
system.cpu.dstage2_mmu.stage2_tlb.misses            0                       # DTB misses
system.cpu.dstage2_mmu.stage2_tlb.accesses            0                       # DTB accesses
system.cpu.dtb.walker.pwrStateResidencyTicks::UNDEFINED   3317133000                       # Cumulative time (in ticks) in various power states
system.cpu.dtb.walker.walks                         0                       # Table walker walks requested
system.cpu.dtb.walker.walkRequestOrigin_Requested::Data            0                       # Table walker requests started/completed, data/inst
system.cpu.dtb.walker.walkRequestOrigin_Requested::Inst            0                       # Table walker requests started/completed, data/inst
system.cpu.dtb.walker.walkRequestOrigin_Requested::total            0                       # Table walker requests started/completed, data/inst
system.cpu.dtb.walker.walkRequestOrigin_Completed::Data            0                       # Table walker requests started/completed, data/inst
system.cpu.dtb.walker.walkRequestOrigin_Completed::Inst            0                       # Table walker requests started/completed, data/inst
system.cpu.dtb.walker.walkRequestOrigin_Completed::total            0                       # Table walker requests started/completed, data/inst
system.cpu.dtb.walker.walkRequestOrigin::total            0                       # Table walker requests started/completed, data/inst
system.cpu.dtb.inst_hits                            0                       # ITB inst hits
system.cpu.dtb.inst_misses                          0                       # ITB inst misses
system.cpu.dtb.read_hits                            0                       # DTB read hits
system.cpu.dtb.read_misses                          0                       # DTB read misses
system.cpu.dtb.write_hits                           0                       # DTB write hits
system.cpu.dtb.write_misses                         0                       # DTB write misses
system.cpu.dtb.flush_tlb                            0                       # Number of times complete TLB was flushed
system.cpu.dtb.flush_tlb_mva                        0                       # Number of times TLB was flushed by MVA
system.cpu.dtb.flush_tlb_mva_asid                   0                       # Number of times TLB was flushed by MVA & ASID
system.cpu.dtb.flush_tlb_asid                       0                       # Number of times TLB was flushed by ASID
system.cpu.dtb.flush_entries                        0                       # Number of entries that have been flushed from TLB
system.cpu.dtb.align_faults                         0                       # Number of TLB faults due to alignment restrictions
system.cpu.dtb.prefetch_faults                      0                       # Number of TLB faults due to prefetch
system.cpu.dtb.domain_faults                        0                       # Number of TLB faults due to domain restrictions
system.cpu.dtb.perms_faults                         0                       # Number of TLB faults due to permissions restrictions
system.cpu.dtb.read_accesses                        0                       # DTB read accesses
system.cpu.dtb.write_accesses                       0                       # DTB write accesses
system.cpu.dtb.inst_accesses                        0                       # ITB inst accesses
system.cpu.dtb.hits                                 0                       # DTB hits
system.cpu.dtb.misses                               0                       # DTB misses
system.cpu.dtb.accesses                             0                       # DTB accesses
system.cpu.istage2_mmu.stage2_tlb.walker.pwrStateResidencyTicks::UNDEFINED   3317133000                       # Cumulative time (in ticks) in various power states
system.cpu.istage2_mmu.stage2_tlb.walker.walks            0                       # Table walker walks requested
system.cpu.istage2_mmu.stage2_tlb.walker.walkRequestOrigin_Requested::Data            0                       # Table walker requests started/completed, data/inst
system.cpu.istage2_mmu.stage2_tlb.walker.walkRequestOrigin_Requested::Inst            0                       # Table walker requests started/completed, data/inst
system.cpu.istage2_mmu.stage2_tlb.walker.walkRequestOrigin_Requested::total            0                       # Table walker requests started/completed, data/inst
system.cpu.istage2_mmu.stage2_tlb.walker.walkRequestOrigin_Completed::Data            0                       # Table walker requests started/completed, data/inst
system.cpu.istage2_mmu.stage2_tlb.walker.walkRequestOrigin_Completed::Inst            0                       # Table walker requests started/completed, data/inst
system.cpu.istage2_mmu.stage2_tlb.walker.walkRequestOrigin_Completed::total            0                       # Table walker requests started/completed, data/inst
system.cpu.istage2_mmu.stage2_tlb.walker.walkRequestOrigin::total            0                       # Table walker requests started/completed, data/inst
system.cpu.istage2_mmu.stage2_tlb.inst_hits            0                       # ITB inst hits
system.cpu.istage2_mmu.stage2_tlb.inst_misses            0                       # ITB inst misses
system.cpu.istage2_mmu.stage2_tlb.read_hits            0                       # DTB read hits
system.cpu.istage2_mmu.stage2_tlb.read_misses            0                       # DTB read misses
system.cpu.istage2_mmu.stage2_tlb.write_hits            0                       # DTB write hits
system.cpu.istage2_mmu.stage2_tlb.write_misses            0                       # DTB write misses
system.cpu.istage2_mmu.stage2_tlb.flush_tlb            0                       # Number of times complete TLB was flushed
system.cpu.istage2_mmu.stage2_tlb.flush_tlb_mva            0                       # Number of times TLB was flushed by MVA
system.cpu.istage2_mmu.stage2_tlb.flush_tlb_mva_asid            0                       # Number of times TLB was flushed by MVA & ASID
system.cpu.istage2_mmu.stage2_tlb.flush_tlb_asid            0                       # Number of times TLB was flushed by ASID
system.cpu.istage2_mmu.stage2_tlb.flush_entries            0                       # Number of entries that have been flushed from TLB
system.cpu.istage2_mmu.stage2_tlb.align_faults            0                       # Number of TLB faults due to alignment restrictions
system.cpu.istage2_mmu.stage2_tlb.prefetch_faults            0                       # Number of TLB faults due to prefetch
system.cpu.istage2_mmu.stage2_tlb.domain_faults            0                       # Number of TLB faults due to domain restrictions
system.cpu.istage2_mmu.stage2_tlb.perms_faults            0                       # Number of TLB faults due to permissions restrictions
system.cpu.istage2_mmu.stage2_tlb.read_accesses            0                       # DTB read accesses
system.cpu.istage2_mmu.stage2_tlb.write_accesses            0                       # DTB write accesses
system.cpu.istage2_mmu.stage2_tlb.inst_accesses            0                       # ITB inst accesses
system.cpu.istage2_mmu.stage2_tlb.hits              0                       # DTB hits
system.cpu.istage2_mmu.stage2_tlb.misses            0                       # DTB misses
system.cpu.istage2_mmu.stage2_tlb.accesses            0                       # DTB accesses
system.cpu.itb.walker.pwrStateResidencyTicks::UNDEFINED   3317133000                       # Cumulative time (in ticks) in various power states
system.cpu.itb.walker.walks                         0                       # Table walker walks requested
system.cpu.itb.walker.walkRequestOrigin_Requested::Data            0                       # Table walker requests started/completed, data/inst
system.cpu.itb.walker.walkRequestOrigin_Requested::Inst            0                       # Table walker requests started/completed, data/inst
system.cpu.itb.walker.walkRequestOrigin_Requested::total            0                       # Table walker requests started/completed, data/inst
system.cpu.itb.walker.walkRequestOrigin_Completed::Data            0                       # Table walker requests started/completed, data/inst
system.cpu.itb.walker.walkRequestOrigin_Completed::Inst            0                       # Table walker requests started/completed, data/inst
system.cpu.itb.walker.walkRequestOrigin_Completed::total            0                       # Table walker requests started/completed, data/inst
system.cpu.itb.walker.walkRequestOrigin::total            0                       # Table walker requests started/completed, data/inst
system.cpu.itb.inst_hits                            0                       # ITB inst hits
system.cpu.itb.inst_misses                          0                       # ITB inst misses
system.cpu.itb.read_hits                            0                       # DTB read hits
system.cpu.itb.read_misses                          0                       # DTB read misses
system.cpu.itb.write_hits                           0                       # DTB write hits
system.cpu.itb.write_misses                         0                       # DTB write misses
system.cpu.itb.flush_tlb                            0                       # Number of times complete TLB was flushed
system.cpu.itb.flush_tlb_mva                        0                       # Number of times TLB was flushed by MVA
system.cpu.itb.flush_tlb_mva_asid                   0                       # Number of times TLB was flushed by MVA & ASID
system.cpu.itb.flush_tlb_asid                       0                       # Number of times TLB was flushed by ASID
system.cpu.itb.flush_entries                        0                       # Number of entries that have been flushed from TLB
system.cpu.itb.align_faults                         0                       # Number of TLB faults due to alignment restrictions
system.cpu.itb.prefetch_faults                      0                       # Number of TLB faults due to prefetch
system.cpu.itb.domain_faults                        0                       # Number of TLB faults due to domain restrictions
system.cpu.itb.perms_faults                         0                       # Number of TLB faults due to permissions restrictions
system.cpu.itb.read_accesses                        0                       # DTB read accesses
system.cpu.itb.write_accesses                       0                       # DTB write accesses
system.cpu.itb.inst_accesses                        0                       # ITB inst accesses
system.cpu.itb.hits                                 0                       # DTB hits
system.cpu.itb.misses                               0                       # DTB misses
system.cpu.itb.accesses                             0                       # DTB accesses
system.cpu.workload.numSyscalls                    36                       # Number of system calls
system.cpu.pwrStateResidencyTicks::ON      3317133000                       # Cumulative time (in ticks) in various power states
system.cpu.numCycles                          6634267                       # number of cpu cycles simulated
system.cpu.numWorkItemsStarted                      0                       # number of work items this cpu started
system.cpu.numWorkItemsCompleted                    0                       # number of work items this cpu completed
system.cpu.fetch.icacheStallCycles              58485                       # Number of cycles fetch is stalled on an Icache miss
system.cpu.fetch.Insts                       11119907                       # Number of instructions fetch has processed
system.cpu.fetch.Branches                     1113805                       # Number of branches that fetch encountered
system.cpu.fetch.predictedBranches             746707                       # Number of branches that fetch has predicted taken
system.cpu.fetch.Cycles                       6442992                       # Number of cycles fetch has run and was not squashing or blocked
system.cpu.fetch.SquashCycles                   51384                       # Number of cycles fetch has spent squashing
system.cpu.fetch.MiscStallCycles                  716                       # Number of cycles fetch has spent waiting on interrupts, or bad addresses, or out of MSHRs
system.cpu.fetch.PendingTrapStallCycles           479                       # Number of stall cycles due to pending traps
system.cpu.fetch.IcacheWaitRetryStallCycles         1101                       # Number of stall cycles due to full MSHR
system.cpu.fetch.CacheLines                   3440708                       # Number of cache lines fetched
system.cpu.fetch.IcacheSquashes                   693                       # Number of outstanding Icache misses that were squashed
system.cpu.fetch.rateDist::samples            6529465                       # Number of instructions fetched each cycle (Total)
system.cpu.fetch.rateDist::mean              1.767698                       # Number of instructions fetched each cycle (Total)
system.cpu.fetch.rateDist::stdev             1.093579                       # Number of instructions fetched each cycle (Total)
system.cpu.fetch.rateDist::underflows               0      0.00%      0.00% # Number of instructions fetched each cycle (Total)
system.cpu.fetch.rateDist::0                   831533     12.74%     12.74% # Number of instructions fetched each cycle (Total)
system.cpu.fetch.rateDist::1                  2344327     35.90%     48.64% # Number of instructions fetched each cycle (Total)
system.cpu.fetch.rateDist::2                   863021     13.22%     61.86% # Number of instructions fetched each cycle (Total)
system.cpu.fetch.rateDist::3                  2490584     38.14%    100.00% # Number of instructions fetched each cycle (Total)
system.cpu.fetch.rateDist::overflows                0      0.00%    100.00% # Number of instructions fetched each cycle (Total)
system.cpu.fetch.rateDist::min_value                0                       # Number of instructions fetched each cycle (Total)
system.cpu.fetch.rateDist::max_value                3                       # Number of instructions fetched each cycle (Total)
system.cpu.fetch.rateDist::total              6529465                       # Number of instructions fetched each cycle (Total)
system.cpu.fetch.branchRate                  0.167887                       # Number of branch fetches per cycle
system.cpu.fetch.rate                        1.676132                       # Number of inst fetches per cycle
system.cpu.decode.IdleCycles                   858381                       # Number of cycles decode is idle
system.cpu.decode.BlockedCycles               1642127                       # Number of cycles decode is blocked
system.cpu.decode.RunCycles                   2905378                       # Number of cycles decode is running
system.cpu.decode.UnblockCycles               1098343                       # Number of cycles decode is unblocking
system.cpu.decode.SquashCycles                  25236                       # Number of cycles decode is squashing
system.cpu.decode.BranchResolved               537882                       # Number of times decode resolved a branch
system.cpu.decode.BranchMispred                   489                       # Number of times decode detected a branch misprediction
system.cpu.decode.DecodedInsts               10750052                       # Number of instructions handled by decode
system.cpu.decode.SquashedInsts                 73157                       # Number of squashed instructions handled by decode
system.cpu.rename.SquashCycles                  25236                       # Number of cycles rename is squashing
system.cpu.rename.IdleCycles                  1385558                       # Number of cycles rename is idle
system.cpu.rename.BlockCycles                  401431                       # Number of cycles rename is blocking
system.cpu.rename.serializeStallCycles          15683                       # count of cycles rename stalled for serializing inst
system.cpu.rename.RunCycles                   3444014                       # Number of cycles rename is running
system.cpu.rename.UnblockCycles               1257543                       # Number of cycles rename is unblocking
system.cpu.rename.RenamedInsts               10622816                       # Number of instructions processed by rename
system.cpu.rename.SquashedInsts                 44343                       # Number of squashed instructions processed by rename
system.cpu.rename.ROBFullEvents                398329                       # Number of times rename has blocked due to ROB full
system.cpu.rename.IQFullEvents                 426635                       # Number of times rename has blocked due to IQ full
system.cpu.rename.LQFullEvents                 101680                       # Number of times rename has blocked due to LQ full
system.cpu.rename.SQFullEvents                   6928                       # Number of times rename has blocked due to SQ full
system.cpu.rename.RenamedOperands             9596453                       # Number of destination operands rename has renamed
system.cpu.rename.RenameLookups              50142452                       # Number of register rename lookups that rename has made
system.cpu.rename.int_rename_lookups         12594228                       # Number of integer rename lookups
system.cpu.rename.fp_rename_lookups                16                       # Number of floating rename lookups
system.cpu.rename.CommittedMaps               8835748                       # Number of HB maps that are committed
system.cpu.rename.UndoneMaps                   760705                       # Number of HB maps that are undone due to squashing
system.cpu.rename.serializingInsts                180                       # count of serializing insts renamed
system.cpu.rename.tempSerializingInsts            152                       # count of temporary serializing insts renamed
system.cpu.rename.skidInsts                   1989831                       # count of insts added to the skid buffer
system.cpu.memDep0.insertedLoads              3817197                       # Number of loads inserted to the mem dependence unit.
system.cpu.memDep0.insertedStores             1837502                       # Number of stores inserted to the mem dependence unit.
system.cpu.memDep0.conflictingLoads           2610177                       # Number of conflicting loads.
system.cpu.memDep0.conflictingStores          1103162                       # Number of conflicting stores.
system.cpu.iq.iqInstsAdded                   10587904                       # Number of instructions added to the IQ (excludes non-spec)
system.cpu.iq.iqNonSpecInstsAdded                 187                       # Number of non-speculative instructions added to the IQ
system.cpu.iq.iqInstsIssued                  10089017                       # Number of instructions issued
system.cpu.iq.iqSquashedInstsIssued             10418                       # Number of squashed instructions issued
system.cpu.iq.iqSquashedInstsExamined          824745                       # Number of squashed instructions iterated over during squash; mainly for profiling
system.cpu.iq.iqSquashedOperandsExamined      2601799                       # Number of squashed operands that are examined and possibly removed from graph
system.cpu.iq.iqSquashedNonSpecRemoved             52                       # Number of squashed non-spec instructions that were removed
system.cpu.iq.issued_per_cycle::samples       6529465                       # Number of insts issued each cycle
system.cpu.iq.issued_per_cycle::mean         1.545152                       # Number of insts issued each cycle
system.cpu.iq.issued_per_cycle::stdev        0.864490                       # Number of insts issued each cycle
system.cpu.iq.issued_per_cycle::underflows            0      0.00%      0.00% # Number of insts issued each cycle
system.cpu.iq.issued_per_cycle::0              651601      9.98%      9.98% # Number of insts issued each cycle
system.cpu.iq.issued_per_cycle::1             2558591     39.19%     49.16% # Number of insts issued each cycle
system.cpu.iq.issued_per_cycle::2             2514257     38.51%     87.67% # Number of insts issued each cycle
system.cpu.iq.issued_per_cycle::3              718155     11.00%     98.67% # Number of insts issued each cycle
system.cpu.iq.issued_per_cycle::4               86858      1.33%    100.00% # Number of insts issued each cycle
system.cpu.iq.issued_per_cycle::5                   3      0.00%    100.00% # Number of insts issued each cycle
system.cpu.iq.issued_per_cycle::6                   0      0.00%    100.00% # Number of insts issued each cycle
system.cpu.iq.issued_per_cycle::7                   0      0.00%    100.00% # Number of insts issued each cycle
system.cpu.iq.issued_per_cycle::8                   0      0.00%    100.00% # Number of insts issued each cycle
system.cpu.iq.issued_per_cycle::overflows            0      0.00%    100.00% # Number of insts issued each cycle
system.cpu.iq.issued_per_cycle::min_value            0                       # Number of insts issued each cycle
system.cpu.iq.issued_per_cycle::max_value            5                       # Number of insts issued each cycle
system.cpu.iq.issued_per_cycle::total         6529465                       # Number of insts issued each cycle
system.cpu.iq.fu_full::No_OpClass                   0      0.00%      0.00% # attempts to use FU when none available
system.cpu.iq.fu_full::IntAlu                  123422      5.23%      5.23% # attempts to use FU when none available
system.cpu.iq.fu_full::IntMult                      2      0.00%      5.23% # attempts to use FU when none available
system.cpu.iq.fu_full::IntDiv                       0      0.00%      5.23% # attempts to use FU when none available
system.cpu.iq.fu_full::FloatAdd                     0      0.00%      5.23% # attempts to use FU when none available
system.cpu.iq.fu_full::FloatCmp                     0      0.00%      5.23% # attempts to use FU when none available
system.cpu.iq.fu_full::FloatCvt                     0      0.00%      5.23% # attempts to use FU when none available
system.cpu.iq.fu_full::FloatMult                    0      0.00%      5.23% # attempts to use FU when none available
system.cpu.iq.fu_full::FloatMultAcc                 0      0.00%      5.23% # attempts to use FU when none available
system.cpu.iq.fu_full::FloatDiv                     0      0.00%      5.23% # attempts to use FU when none available
system.cpu.iq.fu_full::FloatMisc                    0      0.00%      5.23% # attempts to use FU when none available
system.cpu.iq.fu_full::FloatSqrt                    0      0.00%      5.23% # attempts to use FU when none available
system.cpu.iq.fu_full::SimdAdd                      0      0.00%      5.23% # attempts to use FU when none available
system.cpu.iq.fu_full::SimdAddAcc                   0      0.00%      5.23% # attempts to use FU when none available
system.cpu.iq.fu_full::SimdAlu                      0      0.00%      5.23% # attempts to use FU when none available
system.cpu.iq.fu_full::SimdCmp                      0      0.00%      5.23% # attempts to use FU when none available
system.cpu.iq.fu_full::SimdCvt                      0      0.00%      5.23% # attempts to use FU when none available
system.cpu.iq.fu_full::SimdMisc                     0      0.00%      5.23% # attempts to use FU when none available
system.cpu.iq.fu_full::SimdMult                     0      0.00%      5.23% # attempts to use FU when none available
system.cpu.iq.fu_full::SimdMultAcc                  0      0.00%      5.23% # attempts to use FU when none available
system.cpu.iq.fu_full::SimdShift                    0      0.00%      5.23% # attempts to use FU when none available
system.cpu.iq.fu_full::SimdShiftAcc                 0      0.00%      5.23% # attempts to use FU when none available
system.cpu.iq.fu_full::SimdSqrt                     0      0.00%      5.23% # attempts to use FU when none available
system.cpu.iq.fu_full::SimdFloatAdd                 0      0.00%      5.23% # attempts to use FU when none available
system.cpu.iq.fu_full::SimdFloatAlu                 0      0.00%      5.23% # attempts to use FU when none available
system.cpu.iq.fu_full::SimdFloatCmp                 0      0.00%      5.23% # attempts to use FU when none available
system.cpu.iq.fu_full::SimdFloatCvt                 0      0.00%      5.23% # attempts to use FU when none available
system.cpu.iq.fu_full::SimdFloatDiv                 0      0.00%      5.23% # attempts to use FU when none available
system.cpu.iq.fu_full::SimdFloatMisc                0      0.00%      5.23% # attempts to use FU when none available
system.cpu.iq.fu_full::SimdFloatMult                0      0.00%      5.23% # attempts to use FU when none available
system.cpu.iq.fu_full::SimdFloatMultAcc             0      0.00%      5.23% # attempts to use FU when none available
system.cpu.iq.fu_full::SimdFloatSqrt                0      0.00%      5.23% # attempts to use FU when none available
system.cpu.iq.fu_full::MemRead                2056676     87.19%     92.42% # attempts to use FU when none available
system.cpu.iq.fu_full::MemWrite                178759      7.58%    100.00% # attempts to use FU when none available
system.cpu.iq.fu_full::FloatMemRead                 0      0.00%    100.00% # attempts to use FU when none available
system.cpu.iq.fu_full::FloatMemWrite                8      0.00%    100.00% # attempts to use FU when none available
system.cpu.iq.fu_full::IprAccess                    0      0.00%    100.00% # attempts to use FU when none available
system.cpu.iq.fu_full::InstPrefetch                 0      0.00%    100.00% # attempts to use FU when none available
system.cpu.iq.FU_type_0::No_OpClass                 0      0.00%      0.00% # Type of FU issued
system.cpu.iq.FU_type_0::IntAlu               4713690     46.72%     46.72% # Type of FU issued
system.cpu.iq.FU_type_0::IntMult                  145      0.00%     46.72% # Type of FU issued
system.cpu.iq.FU_type_0::IntDiv                     0      0.00%     46.72% # Type of FU issued
system.cpu.iq.FU_type_0::FloatAdd                   0      0.00%     46.72% # Type of FU issued
system.cpu.iq.FU_type_0::FloatCmp                   0      0.00%     46.72% # Type of FU issued
system.cpu.iq.FU_type_0::FloatCvt                   0      0.00%     46.72% # Type of FU issued
system.cpu.iq.FU_type_0::FloatMult                  0      0.00%     46.72% # Type of FU issued
system.cpu.iq.FU_type_0::FloatMultAcc               0      0.00%     46.72% # Type of FU issued
system.cpu.iq.FU_type_0::FloatDiv                   0      0.00%     46.72% # Type of FU issued
system.cpu.iq.FU_type_0::FloatMisc                  0      0.00%     46.72% # Type of FU issued
system.cpu.iq.FU_type_0::FloatSqrt                  0      0.00%     46.72% # Type of FU issued
system.cpu.iq.FU_type_0::SimdAdd                    0      0.00%     46.72% # Type of FU issued
system.cpu.iq.FU_type_0::SimdAddAcc                 0      0.00%     46.72% # Type of FU issued
system.cpu.iq.FU_type_0::SimdAlu                    0      0.00%     46.72% # Type of FU issued
system.cpu.iq.FU_type_0::SimdCmp                    0      0.00%     46.72% # Type of FU issued
system.cpu.iq.FU_type_0::SimdCvt                    0      0.00%     46.72% # Type of FU issued
system.cpu.iq.FU_type_0::SimdMisc                   0      0.00%     46.72% # Type of FU issued
system.cpu.iq.FU_type_0::SimdMult                   0      0.00%     46.72% # Type of FU issued
system.cpu.iq.FU_type_0::SimdMultAcc                0      0.00%     46.72% # Type of FU issued
system.cpu.iq.FU_type_0::SimdShift                  0      0.00%     46.72% # Type of FU issued
system.cpu.iq.FU_type_0::SimdShiftAcc               0      0.00%     46.72% # Type of FU issued
system.cpu.iq.FU_type_0::SimdSqrt                   0      0.00%     46.72% # Type of FU issued
system.cpu.iq.FU_type_0::SimdFloatAdd               0      0.00%     46.72% # Type of FU issued
system.cpu.iq.FU_type_0::SimdFloatAlu               0      0.00%     46.72% # Type of FU issued
system.cpu.iq.FU_type_0::SimdFloatCmp               0      0.00%     46.72% # Type of FU issued
system.cpu.iq.FU_type_0::SimdFloatCvt               0      0.00%     46.72% # Type of FU issued
system.cpu.iq.FU_type_0::SimdFloatDiv               0      0.00%     46.72% # Type of FU issued
system.cpu.iq.FU_type_0::SimdFloatMisc              7      0.00%     46.72% # Type of FU issued
system.cpu.iq.FU_type_0::SimdFloatMult              0      0.00%     46.72% # Type of FU issued
system.cpu.iq.FU_type_0::SimdFloatMultAcc            0      0.00%     46.72% # Type of FU issued
system.cpu.iq.FU_type_0::SimdFloatSqrt              0      0.00%     46.72% # Type of FU issued
system.cpu.iq.FU_type_0::MemRead              3639056     36.07%     82.79% # Type of FU issued
system.cpu.iq.FU_type_0::MemWrite             1736103     17.21%    100.00% # Type of FU issued
system.cpu.iq.FU_type_0::FloatMemRead               0      0.00%    100.00% # Type of FU issued
system.cpu.iq.FU_type_0::FloatMemWrite             16      0.00%    100.00% # Type of FU issued
system.cpu.iq.FU_type_0::IprAccess                  0      0.00%    100.00% # Type of FU issued
system.cpu.iq.FU_type_0::InstPrefetch               0      0.00%    100.00% # Type of FU issued
system.cpu.iq.FU_type_0::total               10089017                       # Type of FU issued
system.cpu.iq.rate                           1.520743                       # Inst issue rate
system.cpu.iq.fu_busy_cnt                     2358867                       # FU busy when requested
system.cpu.iq.fu_busy_rate                   0.233805                       # FU busy rate (busy events/executed inst)
system.cpu.iq.int_inst_queue_reads           29076744                       # Number of integer instruction queue reads
system.cpu.iq.int_inst_queue_writes          11413043                       # Number of integer instruction queue writes
system.cpu.iq.int_inst_queue_wakeup_accesses     10043408                       # Number of integer instruction queue wakeup accesses
system.cpu.iq.fp_inst_queue_reads                  40                       # Number of floating instruction queue reads
system.cpu.iq.fp_inst_queue_writes                 16                       # Number of floating instruction queue writes
system.cpu.iq.fp_inst_queue_wakeup_accesses           16                       # Number of floating instruction queue wakeup accesses
system.cpu.iq.int_alu_accesses               12447860                       # Number of integer alu accesses
system.cpu.iq.fp_alu_accesses                      24                       # Number of floating point alu accesses
system.cpu.iew.lsq.thread0.forwLoads          2067921                       # Number of loads that had data forwarded from stores
system.cpu.iew.lsq.thread0.invAddrLoads             0                       # Number of loads ignored due to an invalid address
system.cpu.iew.lsq.thread0.squashedLoads       291407                       # Number of loads squashed
system.cpu.iew.lsq.thread0.ignoredResponses           27                       # Number of memory responses ignored because the instruction is squashed
system.cpu.iew.lsq.thread0.memOrderViolation          227                       # Number of memory ordering violations
system.cpu.iew.lsq.thread0.squashedStores       166429                       # Number of stores squashed
system.cpu.iew.lsq.thread0.invAddrSwpfs             0                       # Number of software prefetches ignored due to an invalid address
system.cpu.iew.lsq.thread0.blockedLoads             0                       # Number of blocked loads due to partial load-store forwarding
system.cpu.iew.lsq.thread0.rescheduledLoads          126                       # Number of loads that were rescheduled
system.cpu.iew.lsq.thread0.cacheBlocked           107                       # Number of times an access to memory failed due to the cache being blocked
system.cpu.iew.iewIdleCycles                        0                       # Number of cycles IEW is idle
system.cpu.iew.iewSquashCycles                  25236                       # Number of cycles IEW is squashing
system.cpu.iew.iewBlockCycles                   95116                       # Number of cycles IEW is blocking
system.cpu.iew.iewUnblockCycles                  1412                       # Number of cycles IEW is unblocking
system.cpu.iew.iewDispatchedInsts            10588106                       # Number of instructions dispatched to IQ
system.cpu.iew.iewDispSquashedInsts                 0                       # Number of squashed instructions skipped by dispatch
system.cpu.iew.iewDispLoadInsts               3817197                       # Number of dispatched load instructions
system.cpu.iew.iewDispStoreInsts              1837502                       # Number of dispatched store instructions
system.cpu.iew.iewDispNonSpecInsts                137                       # Number of dispatched non-speculative instructions
system.cpu.iew.iewIQFullEvents                     57                       # Number of times the IQ has become full, causing a stall
system.cpu.iew.iewLSQFullEvents                  1337                       # Number of times the LSQ has become full, causing a stall
system.cpu.iew.memOrderViolationEvents            227                       # Number of memory order violations
system.cpu.iew.predictedTakenIncorrect           7246                       # Number of branches that were predicted taken incorrectly
system.cpu.iew.predictedNotTakenIncorrect        17883                       # Number of branches that were predicted not taken incorrectly
system.cpu.iew.branchMispredicts                25129                       # Number of branch mispredicts detected at execute
system.cpu.iew.iewExecutedInsts              10061419                       # Number of executed instructions
system.cpu.iew.iewExecLoadInsts               3627860                       # Number of load instructions executed
system.cpu.iew.iewExecSquashedInsts             27598                       # Number of squashed instructions skipped in execute
system.cpu.iew.exec_swp                             0                       # number of swp insts executed
system.cpu.iew.exec_nop                            15                       # number of nop insts executed
system.cpu.iew.exec_refs                      5348758                       # number of memory reference insts executed
system.cpu.iew.exec_branches                   960420                       # Number of branches executed
system.cpu.iew.exec_stores                    1720898                       # Number of stores executed
system.cpu.iew.exec_rate                     1.516583                       # Inst execution rate
system.cpu.iew.wb_sent                       10052304                       # cumulative count of insts sent to commit
system.cpu.iew.wb_count                      10043424                       # cumulative count of insts written-back
system.cpu.iew.wb_producers                   7114629                       # num instructions producing a value
system.cpu.iew.wb_consumers                   8633497                       # num instructions consuming a value
system.cpu.iew.wb_rate                       1.513871                       # insts written-back per cycle
system.cpu.iew.wb_fanout                     0.824073                       # average fanout of values written-back
system.cpu.commit.commitSquashedInsts          783013                       # The number of squashed insts skipped by commit
system.cpu.commit.commitNonSpecStalls             135                       # The number of times commit has been forced to stall to communicate backwards
system.cpu.commit.branchMispredicts             25011                       # The number of times a branch was mispredicted
system.cpu.commit.committed_per_cycle::samples      6412832                       # Number of insts commited each cycle
system.cpu.commit.committed_per_cycle::mean     1.522470                       # Number of insts commited each cycle
system.cpu.commit.committed_per_cycle::stdev     2.084451                       # Number of insts commited each cycle
system.cpu.commit.committed_per_cycle::underflows            0      0.00%      0.00% # Number of insts commited each cycle
system.cpu.commit.committed_per_cycle::0      2418437     37.71%     37.71% # Number of insts commited each cycle
system.cpu.commit.committed_per_cycle::1      2342330     36.53%     74.24% # Number of insts commited each cycle
system.cpu.commit.committed_per_cycle::2       296356      4.62%     78.86% # Number of insts commited each cycle
system.cpu.commit.committed_per_cycle::3       531836      8.29%     87.15% # Number of insts commited each cycle
system.cpu.commit.committed_per_cycle::4        51325      0.80%     87.95% # Number of insts commited each cycle
system.cpu.commit.committed_per_cycle::5       219189      3.42%     91.37% # Number of insts commited each cycle
system.cpu.commit.committed_per_cycle::6        63702      0.99%     92.36% # Number of insts commited each cycle
system.cpu.commit.committed_per_cycle::7       367918      5.74%     98.10% # Number of insts commited each cycle
system.cpu.commit.committed_per_cycle::8       121739      1.90%    100.00% # Number of insts commited each cycle
system.cpu.commit.committed_per_cycle::overflows            0      0.00%    100.00% # Number of insts commited each cycle
system.cpu.commit.committed_per_cycle::min_value            0                       # Number of insts commited each cycle
system.cpu.commit.committed_per_cycle::max_value            8                       # Number of insts commited each cycle
system.cpu.commit.committed_per_cycle::total      6412832                       # Number of insts commited each cycle
system.cpu.commit.committedInsts              9411554                       # Number of instructions committed
system.cpu.commit.committedOps                9763345                       # Number of ops (including micro ops) committed
system.cpu.commit.swp_count                         0                       # Number of s/w prefetches committed
system.cpu.commit.refs                        5196863                       # Number of memory references committed
system.cpu.commit.loads                       3525790                       # Number of loads committed
system.cpu.commit.membars                          50                       # Number of memory barriers committed
system.cpu.commit.branches                     934634                       # Number of branches committed
system.cpu.commit.fp_insts                         16                       # Number of committed floating point instructions.
system.cpu.commit.int_insts                   9040516                       # Number of committed integer instructions.
system.cpu.commit.function_calls               105744                       # Number of function calls committed.
[...]
system.cpu.dcache.overall_avg_mshr_miss_latency::total 63938.918558                       # average overall mshr miss latency
system.cpu.dtb_walker_cache.tags.pwrStateResidencyTicks::UNDEFINED   3317133000                       # Cumulative time (in ticks) in various power states
system.cpu.dtb_walker_cache.tags.replacements            0                       # number of replacements
system.cpu.dtb_walker_cache.tags.tagsinuse            0                       # Cycle average of tags in use
system.cpu.dtb_walker_cache.tags.total_refs            0                       # Total number of references to valid blocks.
system.cpu.dtb_walker_cache.tags.sampled_refs            0                       # Sample count of references to valid blocks.
system.cpu.dtb_walker_cache.tags.avg_refs          nan                       # Average number of references to valid blocks.
system.cpu.dtb_walker_cache.tags.warmup_cycle            0                       # Cycle when the warmup percentage was hit.
system.cpu.dtb_walker_cache.tags.tag_accesses            0                       # Number of tag accesses
system.cpu.dtb_walker_cache.tags.data_accesses            0                       # Number of data accesses
system.cpu.dtb_walker_cache.pwrStateResidencyTicks::UNDEFINED   3317133000                       # Cumulative time (in ticks) in various power states
system.cpu.dtb_walker_cache.blocked_cycles::no_mshrs            0                       # number of cycles access was blocked
system.cpu.dtb_walker_cache.blocked_cycles::no_targets            0                       # number of cycles access was blocked
system.cpu.dtb_walker_cache.blocked::no_mshrs            0                       # number of cycles access was blocked
system.cpu.dtb_walker_cache.blocked::no_targets            0                       # number of cycles access was blocked
system.cpu.dtb_walker_cache.avg_blocked_cycles::no_mshrs          nan                       # average number of cycles each access was blocked
system.cpu.dtb_walker_cache.avg_blocked_cycles::no_targets          nan                       # average number of cycles each access was blocked
system.cpu.icache.tags.pwrStateResidencyTicks::UNDEFINED   3317133000                       # Cumulative time (in ticks) in various power states
system.cpu.icache.tags.replacements               832                       # number of replacements
system.cpu.icache.tags.tagsinuse           398.307054                       # Cycle average of tags in use
system.cpu.icache.tags.total_refs             3439199                       # Total number of references to valid blocks.
system.cpu.icache.tags.sampled_refs              1274                       # Sample count of references to valid blocks.
system.cpu.icache.tags.avg_refs           2699.528257                       # Average number of references to valid blocks.
system.cpu.icache.tags.warmup_cycle                 0                       # Cycle when the warmup percentage was hit.
system.cpu.icache.tags.occ_blocks::cpu.inst   398.307054                       # Average occupied blocks per requestor
system.cpu.icache.tags.occ_percent::cpu.inst     0.777943                       # Average percentage of cache occupancy
system.cpu.icache.tags.occ_percent::total     0.777943                       # Average percentage of cache occupancy
system.cpu.icache.tags.occ_task_id_blocks::1024          442                       # Occupied blocks per task id
system.cpu.icache.tags.age_task_id_blocks_1024::0           83                       # Occupied blocks per task id
system.cpu.icache.tags.age_task_id_blocks_1024::1           23                       # Occupied blocks per task id
system.cpu.icache.tags.age_task_id_blocks_1024::3          336                       # Occupied blocks per task id
system.cpu.icache.tags.occ_task_id_percent::1024     0.863281                       # Percentage of cache occupancy per task id
system.cpu.icache.tags.tag_accesses           6882674                       # Number of tag accesses
system.cpu.icache.tags.data_accesses          6882674                       # Number of data accesses
system.cpu.icache.pwrStateResidencyTicks::UNDEFINED   3317133000                       # Cumulative time (in ticks) in various power states
system.cpu.icache.ReadReq_hits::cpu.inst      3439199                       # number of ReadReq hits
system.cpu.icache.ReadReq_hits::total         3439199                       # number of ReadReq hits
system.cpu.icache.demand_hits::cpu.inst       3439199                       # number of demand (read+write) hits
system.cpu.icache.demand_hits::total          3439199                       # number of demand (read+write) hits
system.cpu.icache.overall_hits::cpu.inst      3439199                       # number of overall hits
system.cpu.icache.overall_hits::total         3439199                       # number of overall hits
system.cpu.icache.ReadReq_misses::cpu.inst         1501                       # number of ReadReq misses
system.cpu.icache.ReadReq_misses::total          1501                       # number of ReadReq misses
system.cpu.icache.demand_misses::cpu.inst         1501                       # number of demand (read+write) misses
system.cpu.icache.demand_misses::total           1501                       # number of demand (read+write) misses
system.cpu.icache.overall_misses::cpu.inst         1501                       # number of overall misses
system.cpu.icache.overall_misses::total          1501                       # number of overall misses
system.cpu.icache.ReadReq_miss_latency::cpu.inst    101659986                       # number of ReadReq miss cycles
system.cpu.icache.ReadReq_miss_latency::total    101659986                       # number of ReadReq miss cycles
system.cpu.icache.demand_miss_latency::cpu.inst    101659986                       # number of demand (read+write) miss cycles
system.cpu.icache.demand_miss_latency::total    101659986                       # number of demand (read+write) miss cycles
system.cpu.icache.overall_miss_latency::cpu.inst    101659986                       # number of overall miss cycles
system.cpu.icache.overall_miss_latency::total    101659986                       # number of overall miss cycles
system.cpu.icache.ReadReq_accesses::cpu.inst      3440700                       # number of ReadReq accesses(hits+misses)
system.cpu.icache.ReadReq_accesses::total      3440700                       # number of ReadReq accesses(hits+misses)
system.cpu.icache.demand_accesses::cpu.inst      3440700                       # number of demand (read+write) accesses
system.cpu.icache.demand_accesses::total      3440700                       # number of demand (read+write) accesses
system.cpu.icache.overall_accesses::cpu.inst      3440700                       # number of overall (read+write) accesses
system.cpu.icache.overall_accesses::total      3440700                       # number of overall (read+write) accesses
system.cpu.icache.ReadReq_miss_rate::cpu.inst     0.000436                       # miss rate for ReadReq accesses
system.cpu.icache.ReadReq_miss_rate::total     0.000436                       # miss rate for ReadReq accesses
system.cpu.icache.demand_miss_rate::cpu.inst     0.000436                       # miss rate for demand accesses
system.cpu.icache.demand_miss_rate::total     0.000436                       # miss rate for demand accesses
system.cpu.icache.overall_miss_rate::cpu.inst     0.000436                       # miss rate for overall accesses
system.cpu.icache.overall_miss_rate::total     0.000436                       # miss rate for overall accesses
system.cpu.icache.ReadReq_avg_miss_latency::cpu.inst 67728.171885                       # average ReadReq miss latency
system.cpu.icache.ReadReq_avg_miss_latency::total 67728.171885                       # average ReadReq miss latency
system.cpu.icache.demand_avg_miss_latency::cpu.inst 67728.171885                       # average overall miss latency
system.cpu.icache.demand_avg_miss_latency::total 67728.171885                       # average overall miss latency
system.cpu.icache.overall_avg_miss_latency::cpu.inst 67728.171885                       # average overall miss latency
system.cpu.icache.overall_avg_miss_latency::total 67728.171885                       # average overall miss latency
system.cpu.icache.blocked_cycles::no_mshrs        27538                       # number of cycles access was blocked
system.cpu.icache.blocked_cycles::no_targets           13                       # number of cycles access was blocked
system.cpu.icache.blocked::no_mshrs               291                       # number of cycles access was blocked
system.cpu.icache.blocked::no_targets               1                       # number of cycles access was blocked
system.cpu.icache.avg_blocked_cycles::no_mshrs    94.632302                       # average number of cycles each access was blocked
system.cpu.icache.avg_blocked_cycles::no_targets           13                       # average number of cycles each access was blocked
system.cpu.icache.writebacks::writebacks          832                       # number of writebacks
system.cpu.icache.writebacks::total               832                       # number of writebacks
system.cpu.icache.ReadReq_mshr_hits::cpu.inst          225                       # number of ReadReq MSHR hits
system.cpu.icache.ReadReq_mshr_hits::total          225                       # number of ReadReq MSHR hits
system.cpu.icache.demand_mshr_hits::cpu.inst          225                       # number of demand (read+write) MSHR hits
system.cpu.icache.demand_mshr_hits::total          225                       # number of demand (read+write) MSHR hits
system.cpu.icache.overall_mshr_hits::cpu.inst          225                       # number of overall MSHR hits
system.cpu.icache.overall_mshr_hits::total          225                       # number of overall MSHR hits
system.cpu.icache.ReadReq_mshr_misses::cpu.inst         1276                       # number of ReadReq MSHR misses
system.cpu.icache.ReadReq_mshr_misses::total         1276                       # number of ReadReq MSHR misses
system.cpu.icache.demand_mshr_misses::cpu.inst         1276                       # number of demand (read+write) MSHR misses
system.cpu.icache.demand_mshr_misses::total         1276                       # number of demand (read+write) MSHR misses
system.cpu.icache.overall_mshr_misses::cpu.inst         1276                       # number of overall MSHR misses
system.cpu.icache.overall_mshr_misses::total         1276                       # number of overall MSHR misses
system.cpu.icache.ReadReq_mshr_miss_latency::cpu.inst     87671986                       # number of ReadReq MSHR miss cycles
system.cpu.icache.ReadReq_mshr_miss_latency::total     87671986                       # number of ReadReq MSHR miss cycles
system.cpu.icache.demand_mshr_miss_latency::cpu.inst     87671986                       # number of demand (read+write) MSHR miss cycles
system.cpu.icache.demand_mshr_miss_latency::total     87671986                       # number of demand (read+write) MSHR miss cycles
system.cpu.icache.overall_mshr_miss_latency::cpu.inst     87671986                       # number of overall MSHR miss cycles
system.cpu.icache.overall_mshr_miss_latency::total     87671986                       # number of overall MSHR miss cycles
system.cpu.icache.ReadReq_mshr_miss_rate::cpu.inst     0.000371                       # mshr miss rate for ReadReq accesses
system.cpu.icache.ReadReq_mshr_miss_rate::total     0.000371                       # mshr miss rate for ReadReq accesses
system.cpu.icache.demand_mshr_miss_rate::cpu.inst     0.000371                       # mshr miss rate for demand accesses
system.cpu.icache.demand_mshr_miss_rate::total     0.000371                       # mshr miss rate for demand accesses
system.cpu.icache.overall_mshr_miss_rate::cpu.inst     0.000371                       # mshr miss rate for overall accesses
system.cpu.icache.overall_mshr_miss_rate::total     0.000371                       # mshr miss rate for overall accesses
system.cpu.icache.ReadReq_avg_mshr_miss_latency::cpu.inst 68708.452978                       # average ReadReq mshr miss latency
system.cpu.icache.ReadReq_avg_mshr_miss_latency::total 68708.452978                       # average ReadReq mshr miss latency
system.cpu.icache.demand_avg_mshr_miss_latency::cpu.inst 68708.452978                       # average overall mshr miss latency
system.cpu.icache.demand_avg_mshr_miss_latency::total 68708.452978                       # average overall mshr miss latency
system.cpu.icache.overall_avg_mshr_miss_latency::cpu.inst 68708.452978                       # average overall mshr miss latency
system.cpu.icache.overall_avg_mshr_miss_latency::total 68708.452978                       # average overall mshr miss latency
system.cpu.itb_walker_cache.tags.pwrStateResidencyTicks::UNDEFINED   3317133000                       # Cumulative time (in ticks) in various power states
system.cpu.itb_walker_cache.tags.replacements            0                       # number of replacements
system.cpu.itb_walker_cache.tags.tagsinuse            0                       # Cycle average of tags in use
system.cpu.itb_walker_cache.tags.total_refs            0                       # Total number of references to valid blocks.
system.cpu.itb_walker_cache.tags.sampled_refs            0                       # Sample count of references to valid blocks.
system.cpu.itb_walker_cache.tags.avg_refs          nan                       # Average number of references to valid blocks.
system.cpu.itb_walker_cache.tags.warmup_cycle            0                       # Cycle when the warmup percentage was hit.
system.cpu.itb_walker_cache.tags.tag_accesses            0                       # Number of tag accesses
system.cpu.itb_walker_cache.tags.data_accesses            0                       # Number of data accesses
system.cpu.itb_walker_cache.pwrStateResidencyTicks::UNDEFINED   3317133000                       # Cumulative time (in ticks) in various power states
system.cpu.itb_walker_cache.blocked_cycles::no_mshrs            0                       # number of cycles access was blocked
system.cpu.itb_walker_cache.blocked_cycles::no_targets            0                       # number of cycles access was blocked
system.cpu.itb_walker_cache.blocked::no_mshrs            0                       # number of cycles access was blocked
system.cpu.itb_walker_cache.blocked::no_targets            0                       # number of cycles access was blocked
system.cpu.itb_walker_cache.avg_blocked_cycles::no_mshrs          nan                       # average number of cycles each access was blocked
system.cpu.itb_walker_cache.avg_blocked_cycles::no_targets          nan                       # average number of cycles each access was blocked
system.membus.snoop_filter.tot_requests          5088                       # Total number of requests made to the snoop filter.
system.membus.snoop_filter.hit_single_requests         2317                       # Number of requests hitting in the snoop filter with a single holder of the requested data.
system.membus.snoop_filter.hit_multi_requests          225                       # Number of requests hitting in the snoop filter with multiple (>1) holders of the requested data.
system.membus.snoop_filter.tot_snoops               0                       # Total number of snoops made to the snoop filter.
system.membus.snoop_filter.hit_single_snoops            0                       # Number of snoops hitting in the snoop filter with a single holder of the requested data.
system.membus.snoop_filter.hit_multi_snoops            0                       # Number of snoops hitting in the snoop filter with multiple (>1) holders of the requested data.
system.membus.pwrStateResidencyTicks::UNDEFINED   3317133000                       # Cumulative time (in ticks) in various power states
system.membus.trans_dist::ReadResp               2475                       # Transaction distribution
system.membus.trans_dist::WritebackDirty          511                       # Transaction distribution
system.membus.trans_dist::WritebackClean         1803                       # Transaction distribution
system.membus.trans_dist::ReadExReq               297                       # Transaction distribution
system.membus.trans_dist::ReadExResp              297                       # Transaction distribution
system.membus.trans_dist::ReadCleanReq           1276                       # Transaction distribution
system.membus.trans_dist::ReadSharedReq          1201                       # Transaction distribution
system.membus.pkt_count_system.cpu.icache.mem_side::system.mem_ctrls.port         3382                       # Packet count per connected master and slave (bytes)
system.membus.pkt_count_system.cpu.dcache.mem_side::system.mem_ctrls.port         4478                       # Packet count per connected master and slave (bytes)
system.membus.pkt_count::total                   7860                       # Packet count per connected master and slave (bytes)
system.membus.pkt_size_system.cpu.icache.mem_side::system.mem_ctrls.port       134784                       # Cumulative packet size per connected master and slave (bytes)
system.membus.pkt_size_system.cpu.dcache.mem_side::system.mem_ctrls.port       190720                       # Cumulative packet size per connected master and slave (bytes)
system.membus.pkt_size::total                  325504                       # Cumulative packet size per connected master and slave (bytes)
system.membus.snoops                                0                       # Total snoops (count)
system.membus.snoopTraffic                          0                       # Total snoop traffic (bytes)
system.membus.snoop_fanout::samples              2774                       # Request fanout histogram
system.membus.snoop_fanout::mean             0.082192                       # Request fanout histogram
system.membus.snoop_fanout::stdev            0.274706                       # Request fanout histogram
system.membus.snoop_fanout::underflows              0      0.00%      0.00% # Request fanout histogram
system.membus.snoop_fanout::0                    2546     91.78%     91.78% # Request fanout histogram
system.membus.snoop_fanout::1                     228      8.22%    100.00% # Request fanout histogram
system.membus.snoop_fanout::2                       0      0.00%    100.00% # Request fanout histogram
system.membus.snoop_fanout::3                       0      0.00%    100.00% # Request fanout histogram
system.membus.snoop_fanout::4                       0      0.00%    100.00% # Request fanout histogram
system.membus.snoop_fanout::overflows               0      0.00%    100.00% # Request fanout histogram
system.membus.snoop_fanout::min_value               0                       # Request fanout histogram
system.membus.snoop_fanout::max_value               1                       # Request fanout histogram
system.membus.snoop_fanout::total                2774                       # Request fanout histogram
system.membus.reqLayer0.occupancy            15120000                       # Layer occupancy (ticks)
system.membus.reqLayer0.utilization               0.5                       # Layer utilization (%)
system.membus.respLayer1.occupancy            6753243                       # Layer occupancy (ticks)
system.membus.respLayer1.utilization              0.2                       # Layer utilization (%)
system.membus.respLayer2.occupancy            7887238                       # Layer occupancy (ticks)
system.membus.respLayer2.utilization              0.2                       # Layer utilization (%)

---------- End Simulation Statistics   ----------
