gem5 Simulator System.  http://gem5.org
gem5 is copyrighted software; use the --copyright option for details.

gem5 compiled May 13 2017 18:19:47
gem5 started May 13 2017 18:26:44
gem5 executing on instance-2, pid 10272
command line: /home/rnywok/CA_project3_gem5/build/ARM/gem5.debug -d /home/rnywok/project3_1/bitcount --dump-config=config_5.ini -re --stats-file=stats_5.txt --stdout-file=stdout_5 --stderr-file=stderr_5 /home/rnywok/CA_project3_gem5/configs/example/se.py --dcache-repl-policy=Random --l1d_size=1kB --l1d_assoc=1 --cpu-type=arm_detailed --caches --num-cpus=1 -c /home/rnywok/mibench/automotive/bitcount/gem_bitcnts -o 7500

Global frequency set at 1000000000000 ticks per second
**** REAL SIMULATION ****
Bit counter algorithm benchmark

Optimized 1 bit/loop counter          > Time:   0.001 sec.; Bits: 123816
Ratko's mystery algorithm             > Time:   0.000 sec.; Bits: 123833
Recursive bit count by nybbles        > Time:   0.001 sec.; Bits: 118789
Non-recursive bit count by nybbles    > Time:   0.000 sec.; Bits: 116266
Non-recursive bit count by bytes (BW) > Time:   0.001 sec.; Bits: 118720
Non-recursive bit count by bytes (AR) > Time:   0.001 sec.; Bits: 105486
Shift and count bits                  > Time:   0.001 sec.; Bits: 118850

Best  > Non-recursive bit count by nybbles
Worst > Shift and count bits
Exiting @ tick 4539524000 because exiting with last active thread context
